/*---------------------------------------------------------------------------*\
| =========                 |                                                 |
| \\      /  F ield         | OpenFOAM: The Open Source CFD Toolbox           |
|  \\    /   O peration     | Version:                                        |
|   \\  /    A nd           | Website:  www.openfoam.com                      |
|    \\/     M anipulation  |                                                 |
\*---------------------------------------------------------------------------*/
Build  : OPENFOAM=1912 patch=200626
Arch   : "LSB;label=32;scalar=64"
Exec   : simpleFoam -case openfoam
Date   : Jun 25 2026
Time   : 00:26:28
Host   : raspberrypi
PID    : 25704
I/O    : uncollated
Case   : /home/paulo/mydropbox/homelab/City4CFD/examples/Brasilia/openfoam
nProcs : 1
trapFpe: Floating point exception trapping enabled (FOAM_SIGFPE).
fileModificationChecking : Monitoring run-time modified files using timeStampMaster (fileModificationSkew 10)
allowSystemOperations : Allowing user-supplied system call operations

// * * * * * * * * * * * * * * * * * * * * * * * * * * * * * * * * * * * * * //
Create time

Create mesh for time = 0


SIMPLE: convergence criteria
    field p	 tolerance 0.0001
    field U	 tolerance 0.0001
    field k	 tolerance 0.0001
    field epsilon	 tolerance 0.0001

Reading field p

Reading field U

Reading/calculating face flux field phi

Selecting incompressible transport model Newtonian
Selecting turbulence model type RAS
Selecting RAS turbulence model kEpsilon
RAS
{
    RASModel        kEpsilon;
    turbulence      on;
    printCoeffs     on;
    Cmu             0.09;
    C1              1.44;
    C2              1.92;
    C3              0;
    sigmak          1;
    sigmaEps        1.3;
}

No MRF models present

No finite volume options present

Starting time loop

Time = 1

smoothSolver:  Solving for Ux, Initial residual = 1, Final residual = 0.089915538, No Iterations 1
smoothSolver:  Solving for Uy, Initial residual = 1, Final residual = 0.068376901, No Iterations 3
smoothSolver:  Solving for Uz, Initial residual = 1, Final residual = 0.045317997, No Iterations 3
GAMG:  Solving for p, Initial residual = 1, Final residual = 0.0070497892, No Iterations 8
GAMG:  Solving for p, Initial residual = 0.001869176, Final residual = 1.1999178e-05, No Iterations 3
time step continuity errors : sum local = 5.4113116e-06, global = -6.709621e-07, cumulative = -6.709621e-07
smoothSolver:  Solving for epsilon, Initial residual = 0.06643109, Final residual = 0.0012545726, No Iterations 1
smoothSolver:  Solving for k, Initial residual = 1, Final residual = 0.021943676, No Iterations 1
ExecutionTime = 97.32 s  ClockTime = 105 s

Time = 2

smoothSolver:  Solving for Ux, Initial residual = 0.25777752, Final residual = 0.021531565, No Iterations 1
smoothSolver:  Solving for Uy, Initial residual = 0.26560455, Final residual = 0.01741904, No Iterations 2
smoothSolver:  Solving for Uz, Initial residual = 0.30079085, Final residual = 0.015654914, No Iterations 2
GAMG:  Solving for p, Initial residual = 0.0043478528, Final residual = 3.56344e-05, No Iterations 6
GAMG:  Solving for p, Initial residual = 0.0014928032, Final residual = 6.0069899e-06, No Iterations 4
time step continuity errors : sum local = 1.1885453e-06, global = -1.6097517e-07, cumulative = -8.3193726e-07
smoothSolver:  Solving for epsilon, Initial residual = 0.037121869, Final residual = 0.00063253574, No Iterations 1
smoothSolver:  Solving for k, Initial residual = 0.30701448, Final residual = 0.0062898913, No Iterations 1
ExecutionTime = 173.94 s  ClockTime = 182 s

Time = 3

smoothSolver:  Solving for Ux, Initial residual = 0.13211575, Final residual = 0.010068438, No Iterations 1
smoothSolver:  Solving for Uy, Initial residual = 0.10668821, Final residual = 0.0045907171, No Iterations 2
smoothSolver:  Solving for Uz, Initial residual = 0.12880567, Final residual = 0.0038907101, No Iterations 2
GAMG:  Solving for p, Initial residual = 0.0049757137, Final residual = 3.5074089e-05, No Iterations 7
GAMG:  Solving for p, Initial residual = 0.0066778232, Final residual = 4.373396e-05, No Iterations 3
time step continuity errors : sum local = 1.9776481e-06, global = -2.7261373e-07, cumulative = -1.104551e-06
smoothSolver:  Solving for epsilon, Initial residual = 0.024871008, Final residual = 0.00044726602, No Iterations 1
smoothSolver:  Solving for k, Initial residual = 0.17419998, Final residual = 0.0035685453, No Iterations 1
ExecutionTime = 250.11 s  ClockTime = 258 s

Time = 4

smoothSolver:  Solving for Ux, Initial residual = 0.036046987, Final residual = 0.0028678043, No Iterations 1
smoothSolver:  Solving for Uy, Initial residual = 0.055794426, Final residual = 0.0019402029, No Iterations 2
smoothSolver:  Solving for Uz, Initial residual = 0.077880335, Final residual = 0.0019791496, No Iterations 2
GAMG:  Solving for p, Initial residual = 0.012874727, Final residual = 8.1420438e-05, No Iterations 6
GAMG:  Solving for p, Initial residual = 0.014395774, Final residual = 0.00013693307, No Iterations 3
time step continuity errors : sum local = 9.5127477e-07, global = -1.3175866e-07, cumulative = -1.2363096e-06
smoothSolver:  Solving for epsilon, Initial residual = 0.017829462, Final residual = 0.00033547079, No Iterations 1
smoothSolver:  Solving for k, Initial residual = 0.11890329, Final residual = 0.0024687753, No Iterations 1
ExecutionTime = 324.26 s  ClockTime = 332 s

Time = 5

smoothSolver:  Solving for Ux, Initial residual = 0.0076451038, Final residual = 0.00015397924, No Iterations 2
smoothSolver:  Solving for Uy, Initial residual = 0.044105093, Final residual = 0.0015638749, No Iterations 2
smoothSolver:  Solving for Uz, Initial residual = 0.072029076, Final residual = 0.0018033122, No Iterations 2
GAMG:  Solving for p, Initial residual = 0.058787148, Final residual = 0.00058211745, No Iterations 4
GAMG:  Solving for p, Initial residual = 0.01567158, Final residual = 0.00013442038, No Iterations 4
time step continuity errors : sum local = 2.8988753e-07, global = 2.5273229e-08, cumulative = -1.2110364e-06
smoothSolver:  Solving for epsilon, Initial residual = 0.013725534, Final residual = 0.00026660497, No Iterations 1
smoothSolver:  Solving for k, Initial residual = 0.088782993, Final residual = 0.0018779792, No Iterations 1
ExecutionTime = 396.17 s  ClockTime = 404 s

Time = 6

smoothSolver:  Solving for Ux, Initial residual = 0.0043414808, Final residual = 0.00012161127, No Iterations 2
smoothSolver:  Solving for Uy, Initial residual = 0.04072909, Final residual = 0.0015111941, No Iterations 2
smoothSolver:  Solving for Uz, Initial residual = 0.063836948, Final residual = 0.0016628657, No Iterations 2
GAMG:  Solving for p, Initial residual = 0.15373664, Final residual = 0.00066817051, No Iterations 4
GAMG:  Solving for p, Initial residual = 0.012782839, Final residual = 4.998608e-05, No Iterations 4
time step continuity errors : sum local = 8.9850913e-08, global = 6.3629576e-09, cumulative = -1.2046735e-06
smoothSolver:  Solving for epsilon, Initial residual = 0.011277313, Final residual = 0.00022504603, No Iterations 1
smoothSolver:  Solving for k, Initial residual = 0.070355929, Final residual = 0.0015229606, No Iterations 1
ExecutionTime = 467.93 s  ClockTime = 476 s

Time = 7

smoothSolver:  Solving for Ux, Initial residual = 0.0040237695, Final residual = 0.00011132519, No Iterations 2
smoothSolver:  Solving for Uy, Initial residual = 0.037610928, Final residual = 0.0014691423, No Iterations 2
smoothSolver:  Solving for Uz, Initial residual = 0.05643523, Final residual = 0.0015026911, No Iterations 2
GAMG:  Solving for p, Initial residual = 0.13499607, Final residual = 0.00070229279, No Iterations 4
GAMG:  Solving for p, Initial residual = 0.010344973, Final residual = 3.8452795e-05, No Iterations 4
time step continuity errors : sum local = 6.8479136e-08, global = -4.6946511e-09, cumulative = -1.2093681e-06
smoothSolver:  Solving for epsilon, Initial residual = 0.0097594525, Final residual = 0.00019981441, No Iterations 1
smoothSolver:  Solving for k, Initial residual = 0.058166023, Final residual = 0.0012910195, No Iterations 1
ExecutionTime = 539.52 s  ClockTime = 548 s

Time = 8

smoothSolver:  Solving for Ux, Initial residual = 0.0038210352, Final residual = 0.00010509154, No Iterations 2
smoothSolver:  Solving for Uy, Initial residual = 0.034621786, Final residual = 0.0014266333, No Iterations 2
smoothSolver:  Solving for Uz, Initial residual = 0.051330008, Final residual = 0.0013999508, No Iterations 2
GAMG:  Solving for p, Initial residual = 0.10116189, Final residual = 0.00058715761, No Iterations 4
GAMG:  Solving for p, Initial residual = 0.0080796361, Final residual = 3.119563e-05, No Iterations 4
time step continuity errors : sum local = 5.6596891e-08, global = -4.7391923e-09, cumulative = -1.2141073e-06
smoothSolver:  Solving for epsilon, Initial residual = 0.0087572607, Final residual = 0.00018383397, No Iterations 1
smoothSolver:  Solving for k, Initial residual = 0.049568925, Final residual = 0.0011242668, No Iterations 1
ExecutionTime = 611.24 s  ClockTime = 620 s

Time = 9

smoothSolver:  Solving for Ux, Initial residual = 0.0036149911, Final residual = 0.00010021335, No Iterations 2
smoothSolver:  Solving for Uy, Initial residual = 0.032148387, Final residual = 0.0013900104, No Iterations 2
smoothSolver:  Solving for Uz, Initial residual = 0.047405378, Final residual = 0.0013298497, No Iterations 2
GAMG:  Solving for p, Initial residual = 0.078019195, Final residual = 0.00050500081, No Iterations 4
GAMG:  Solving for p, Initial residual = 0.0067812976, Final residual = 2.4978038e-05, No Iterations 4
time step continuity errors : sum local = 4.5027582e-08, global = -4.7213698e-09, cumulative = -1.2188287e-06
smoothSolver:  Solving for epsilon, Initial residual = 0.0080340258, Final residual = 0.0001732667, No Iterations 1
smoothSolver:  Solving for k, Initial residual = 0.043064905, Final residual = 0.00099690805, No Iterations 1
ExecutionTime = 682.77 s  ClockTime = 691 s

Time = 10

smoothSolver:  Solving for Ux, Initial residual = 0.0034179566, Final residual = 9.5831895e-05, No Iterations 2
smoothSolver:  Solving for Uy, Initial residual = 0.030280741, Final residual = 0.0013592421, No Iterations 2
smoothSolver:  Solving for Uz, Initial residual = 0.044310665, Final residual = 0.0012731632, No Iterations 2
GAMG:  Solving for p, Initial residual = 0.064143497, Final residual = 0.00038717853, No Iterations 4
GAMG:  Solving for p, Initial residual = 0.0059433476, Final residual = 2.4709152e-05, No Iterations 4
time step continuity errors : sum local = 4.3962817e-08, global = -6.2878009e-09, cumulative = -1.2251165e-06
smoothSolver:  Solving for epsilon, Initial residual = 0.0074459211, Final residual = 0.00016547862, No Iterations 1
smoothSolver:  Solving for k, Initial residual = 0.038271125, Final residual = 0.00089548951, No Iterations 1
ExecutionTime = 754.56 s  ClockTime = 763 s

Time = 11

smoothSolver:  Solving for Ux, Initial residual = 0.003242424, Final residual = 9.1777242e-05, No Iterations 2
smoothSolver:  Solving for Uy, Initial residual = 0.028894462, Final residual = 0.0013331491, No Iterations 2
smoothSolver:  Solving for Uz, Initial residual = 0.041777052, Final residual = 0.0012241078, No Iterations 2
GAMG:  Solving for p, Initial residual = 0.054727432, Final residual = 0.00035047234, No Iterations 4
GAMG:  Solving for p, Initial residual = 0.0054025836, Final residual = 2.4689678e-05, No Iterations 4
time step continuity errors : sum local = 4.3452879e-08, global = 2.5215054e-10, cumulative = -1.2248643e-06
smoothSolver:  Solving for epsilon, Initial residual = 0.0068878075, Final residual = 0.00015844183, No Iterations 1
smoothSolver:  Solving for k, Initial residual = 0.034412506, Final residual = 0.00081240755, No Iterations 1
ExecutionTime = 826.2 s  ClockTime = 835 s

Time = 12

smoothSolver:  Solving for Ux, Initial residual = 0.0030997509, Final residual = 8.8076037e-05, No Iterations 2
smoothSolver:  Solving for Uy, Initial residual = 0.027811867, Final residual = 0.0013098841, No Iterations 2
smoothSolver:  Solving for Uz, Initial residual = 0.039678465, Final residual = 0.0011809282, No Iterations 2
GAMG:  Solving for p, Initial residual = 0.048443466, Final residual = 0.00034878149, No Iterations 4
GAMG:  Solving for p, Initial residual = 0.0051093621, Final residual = 4.6224079e-05, No Iterations 3
time step continuity errors : sum local = 7.8812998e-08, global = 2.6687169e-09, cumulative = -1.2221956e-06
smoothSolver:  Solving for epsilon, Initial residual = 0.0063512268, Final residual = 0.0001515365, No Iterations 1
smoothSolver:  Solving for k, Initial residual = 0.031102817, Final residual = 0.00074377235, No Iterations 1
ExecutionTime = 895.85 s  ClockTime = 904 s

Time = 13

smoothSolver:  Solving for Ux, Initial residual = 0.002953927, Final residual = 8.4739843e-05, No Iterations 2
smoothSolver:  Solving for Uy, Initial residual = 0.026922042, Final residual = 0.001288124, No Iterations 2
smoothSolver:  Solving for Uz, Initial residual = 0.037875078, Final residual = 0.0011427848, No Iterations 2
GAMG:  Solving for p, Initial residual = 0.044245913, Final residual = 0.00035366022, No Iterations 4
GAMG:  Solving for p, Initial residual = 0.0049128619, Final residual = 1.7263414e-05, No Iterations 4
time step continuity errors : sum local = 2.8150712e-08, global = 3.3160634e-09, cumulative = -1.2188795e-06
smoothSolver:  Solving for epsilon, Initial residual = 0.0058399574, Final residual = 0.00014464508, No Iterations 1
smoothSolver:  Solving for k, Initial residual = 0.028232052, Final residual = 0.0006861834, No Iterations 1
ExecutionTime = 967.68 s  ClockTime = 976 s

Time = 14

smoothSolver:  Solving for Ux, Initial residual = 0.0028101762, Final residual = 8.1680403e-05, No Iterations 2
smoothSolver:  Solving for Uy, Initial residual = 0.026172773, Final residual = 0.0012674735, No Iterations 2
smoothSolver:  Solving for Uz, Initial residual = 0.036329173, Final residual = 0.0011095224, No Iterations 2
GAMG:  Solving for p, Initial residual = 0.041612505, Final residual = 0.00034429378, No Iterations 4
GAMG:  Solving for p, Initial residual = 0.0047293197, Final residual = 1.7794948e-05, No Iterations 4
time step continuity errors : sum local = 2.76982e-08, global = 3.4897491e-09, cumulative = -1.2153898e-06
smoothSolver:  Solving for epsilon, Initial residual = 0.0053606444, Final residual = 0.00013781917, No Iterations 1
smoothSolver:  Solving for k, Initial residual = 0.025711135, Final residual = 0.00063647675, No Iterations 1
ExecutionTime = 1039.35 s  ClockTime = 1048 s

Time = 15

smoothSolver:  Solving for Ux, Initial residual = 0.0026752109, Final residual = 7.884806e-05, No Iterations 2
smoothSolver:  Solving for Uy, Initial residual = 0.025533754, Final residual = 0.0012480325, No Iterations 2
smoothSolver:  Solving for Uz, Initial residual = 0.035023884, Final residual = 0.0010803185, No Iterations 2
GAMG:  Solving for p, Initial residual = 0.039821296, Final residual = 0.00033668997, No Iterations 4
GAMG:  Solving for p, Initial residual = 0.0045835666, Final residual = 1.7706482e-05, No Iterations 4
time step continuity errors : sum local = 2.6298024e-08, global = 3.7069142e-09, cumulative = -1.2116829e-06
smoothSolver:  Solving for epsilon, Initial residual = 0.0049229539, Final residual = 0.00013116292, No Iterations 1
smoothSolver:  Solving for k, Initial residual = 0.023512287, Final residual = 0.00059337891, No Iterations 1
ExecutionTime = 1110.77 s  ClockTime = 1120 s

Time = 16

smoothSolver:  Solving for Ux, Initial residual = 0.0025538332, Final residual = 7.6209263e-05, No Iterations 2
smoothSolver:  Solving for Uy, Initial residual = 0.02497176, Final residual = 0.0012297556, No Iterations 2
smoothSolver:  Solving for Uz, Initial residual = 0.033890902, Final residual = 0.001054826, No Iterations 2
GAMG:  Solving for p, Initial residual = 0.038480888, Final residual = 0.00033384747, No Iterations 4
GAMG:  Solving for p, Initial residual = 0.0044693901, Final residual = 1.773919e-05, No Iterations 4
time step continuity errors : sum local = 2.5155312e-08, global = 3.7364654e-09, cumulative = -1.2079464e-06
smoothSolver:  Solving for epsilon, Initial residual = 0.0045229031, Final residual = 0.00012478771, No Iterations 1
smoothSolver:  Solving for k, Initial residual = 0.021604127, Final residual = 0.00055594214, No Iterations 1
ExecutionTime = 1182.33 s  ClockTime = 1191 s

Time = 17

smoothSolver:  Solving for Ux, Initial residual = 0.0024463381, Final residual = 7.3740446e-05, No Iterations 2
smoothSolver:  Solving for Uy, Initial residual = 0.024464004, Final residual = 0.0012126474, No Iterations 2
smoothSolver:  Solving for Uz, Initial residual = 0.032873482, Final residual = 0.0010325494, No Iterations 2
GAMG:  Solving for p, Initial residual = 0.037408524, Final residual = 0.00033439616, No Iterations 4
GAMG:  Solving for p, Initial residual = 0.0043786162, Final residual = 1.7956606e-05, No Iterations 4
time step continuity errors : sum local = 2.4348383e-08, global = 3.5927843e-09, cumulative = -1.2043536e-06
smoothSolver:  Solving for epsilon, Initial residual = 0.0041595207, Final residual = 0.00011879138, No Iterations 1
smoothSolver:  Solving for k, Initial residual = 0.019924182, Final residual = 0.00052329855, No Iterations 1
ExecutionTime = 1254.12 s  ClockTime = 1263 s

Time = 18

smoothSolver:  Solving for Ux, Initial residual = 0.0023487239, Final residual = 7.1414954e-05, No Iterations 2
smoothSolver:  Solving for Uy, Initial residual = 0.024000021, Final residual = 0.0011962461, No Iterations 2
smoothSolver:  Solving for Uz, Initial residual = 0.031961686, Final residual = 0.0010129635, No Iterations 2
GAMG:  Solving for p, Initial residual = 0.036681097, Final residual = 0.00033624395, No Iterations 4
GAMG:  Solving for p, Initial residual = 0.0043056277, Final residual = 1.8238589e-05, No Iterations 4
time step continuity errors : sum local = 2.368811e-08, global = 3.4084908e-09, cumulative = -1.2009451e-06
smoothSolver:  Solving for epsilon, Initial residual = 0.0038311433, Final residual = 0.00011323396, No Iterations 1
smoothSolver:  Solving for k, Initial residual = 0.018439791, Final residual = 0.00049474233, No Iterations 1
ExecutionTime = 1325.65 s  ClockTime = 1335 s

Time = 19

smoothSolver:  Solving for Ux, Initial residual = 0.0022587768, Final residual = 6.9202542e-05, No Iterations 2
smoothSolver:  Solving for Uy, Initial residual = 0.023565694, Final residual = 0.001180547, No Iterations 2
smoothSolver:  Solving for Uz, Initial residual = 0.031152028, Final residual = 0.000995532, No Iterations 2
GAMG:  Solving for p, Initial residual = 0.036079647, Final residual = 0.00033710402, No Iterations 4
GAMG:  Solving for p, Initial residual = 0.0042346387, Final residual = 1.8353391e-05, No Iterations 4
time step continuity errors : sum local = 2.2868888e-08, global = 3.1994617e-09, cumulative = -1.1977457e-06
smoothSolver:  Solving for epsilon, Initial residual = 0.0035357279, Final residual = 0.00010815014, No Iterations 1
smoothSolver:  Solving for k, Initial residual = 0.01712455, Final residual = 0.00046970982, No Iterations 1
ExecutionTime = 1396.93 s  ClockTime = 1406 s

Time = 20

smoothSolver:  Solving for Ux, Initial residual = 0.0021768748, Final residual = 6.7105034e-05, No Iterations 2
smoothSolver:  Solving for Uy, Initial residual = 0.023157004, Final residual = 0.0011654705, No Iterations 2
smoothSolver:  Solving for Uz, Initial residual = 0.030434684, Final residual = 0.00097984174, No Iterations 2
GAMG:  Solving for p, Initial residual = 0.03559257, Final residual = 0.00033550884, No Iterations 4
GAMG:  Solving for p, Initial residual = 0.0041660518, Final residual = 1.8053827e-05, No Iterations 4
time step continuity errors : sum local = 2.1615636e-08, global = 2.9496405e-09, cumulative = -1.194796e-06
smoothSolver:  Solving for epsilon, Initial residual = 0.0032708957, Final residual = 0.00010356123, No Iterations 1
smoothSolver:  Solving for k, Initial residual = 0.015956905, Final residual = 0.00044799164, No Iterations 1
ExecutionTime = 1468.77 s  ClockTime = 1478 s

Time = 21

smoothSolver:  Solving for Ux, Initial residual = 0.0021023368, Final residual = 6.5123146e-05, No Iterations 2
smoothSolver:  Solving for Uy, Initial residual = 0.022771197, Final residual = 0.0011511195, No Iterations 2
smoothSolver:  Solving for Uz, Initial residual = 0.029787504, Final residual = 0.00096538989, No Iterations 2
GAMG:  Solving for p, Initial residual = 0.03519221, Final residual = 0.0003300233, No Iterations 4
GAMG:  Solving for p, Initial residual = 0.0040947357, Final residual = 1.7185413e-05, No Iterations 4
time step continuity errors : sum local = 1.9801752e-08, global = 2.6328782e-09, cumulative = -1.1921632e-06
smoothSolver:  Solving for epsilon, Initial residual = 0.0030346775, Final residual = 9.9408102e-05, No Iterations 1
smoothSolver:  Solving for k, Initial residual = 0.014917764, Final residual = 0.0004289832, No Iterations 1
ExecutionTime = 1540.78 s  ClockTime = 1550 s

Time = 22

smoothSolver:  Solving for Ux, Initial residual = 0.0020341738, Final residual = 6.3246037e-05, No Iterations 2
smoothSolver:  Solving for Uy, Initial residual = 0.022406679, Final residual = 0.0011374488, No Iterations 2
smoothSolver:  Solving for Uz, Initial residual = 0.029196571, Final residual = 0.00095149262, No Iterations 2
GAMG:  Solving for p, Initial residual = 0.034902599, Final residual = 0.00032233569, No Iterations 4
GAMG:  Solving for p, Initial residual = 0.0040235021, Final residual = 1.6116304e-05, No Iterations 4
time step continuity errors : sum local = 1.7897255e-08, global = 2.2904213e-09, cumulative = -1.1898727e-06
smoothSolver:  Solving for epsilon, Initial residual = 0.0028264472, Final residual = 9.5656457e-05, No Iterations 1
smoothSolver:  Solving for k, Initial residual = 0.013991311, Final residual = 0.00041218286, No Iterations 1
ExecutionTime = 1613.07 s  ClockTime = 1622 s

Time = 23

smoothSolver:  Solving for Ux, Initial residual = 0.0019714291, Final residual = 6.1463864e-05, No Iterations 2
smoothSolver:  Solving for Uy, Initial residual = 0.022059418, Final residual = 0.0011244045, No Iterations 2
smoothSolver:  Solving for Uz, Initial residual = 0.028643319, Final residual = 0.00093782049, No Iterations 2
GAMG:  Solving for p, Initial residual = 0.034638797, Final residual = 0.00031531494, No Iterations 4
GAMG:  Solving for p, Initial residual = 0.003953116, Final residual = 1.5375194e-05, No Iterations 4
time step continuity errors : sum local = 1.6476905e-08, global = 1.8915341e-09, cumulative = -1.1879812e-06
smoothSolver:  Solving for epsilon, Initial residual = 0.0026430429, Final residual = 9.2263439e-05, No Iterations 1
smoothSolver:  Solving for k, Initial residual = 0.013163265, Final residual = 0.00039725858, No Iterations 1
ExecutionTime = 1684.45 s  ClockTime = 1694 s

Time = 24

smoothSolver:  Solving for Ux, Initial residual = 0.0019130967, Final residual = 5.9756709e-05, No Iterations 2
smoothSolver:  Solving for Uy, Initial residual = 0.021724371, Final residual = 0.0011117232, No Iterations 2
smoothSolver:  Solving for Uz, Initial residual = 0.028117429, Final residual = 0.00092389554, No Iterations 2
GAMG:  Solving for p, Initial residual = 0.034420079, Final residual = 0.00030965636, No Iterations 4
GAMG:  Solving for p, Initial residual = 0.0038892374, Final residual = 1.4882064e-05, No Iterations 4
time step continuity errors : sum local = 1.5410393e-08, global = 1.5542804e-09, cumulative = -1.1864269e-06
smoothSolver:  Solving for epsilon, Initial residual = 0.0024786921, Final residual = 8.9181205e-05, No Iterations 1
smoothSolver:  Solving for k, Initial residual = 0.012429616, Final residual = 0.00038395157, No Iterations 1
ExecutionTime = 1755.97 s  ClockTime = 1765 s

Time = 25

smoothSolver:  Solving for Ux, Initial residual = 0.0018586764, Final residual = 5.812724e-05, No Iterations 2
smoothSolver:  Solving for Uy, Initial residual = 0.021399188, Final residual = 0.0010990116, No Iterations 2
smoothSolver:  Solving for Uz, Initial residual = 0.02761812, Final residual = 0.00090980673, No Iterations 2
GAMG:  Solving for p, Initial residual = 0.034264842, Final residual = 0.0003019033, No Iterations 4
GAMG:  Solving for p, Initial residual = 0.0038256022, Final residual = 1.4290371e-05, No Iterations 4
time step continuity errors : sum local = 1.43148e-08, global = 1.3305815e-09, cumulative = -1.1850963e-06
smoothSolver:  Solving for epsilon, Initial residual = 0.002331931, Final residual = 8.6368093e-05, No Iterations 1
smoothSolver:  Solving for k, Initial residual = 0.011776836, Final residual = 0.00037206869, No Iterations 1
ExecutionTime = 1827.3 s  ClockTime = 1837 s

Time = 26

smoothSolver:  Solving for Ux, Initial residual = 0.001807779, Final residual = 5.6571549e-05, No Iterations 2
smoothSolver:  Solving for Uy, Initial residual = 0.021081993, Final residual = 0.0010862995, No Iterations 2
smoothSolver:  Solving for Uz, Initial residual = 0.027142021, Final residual = 0.00089547035, No Iterations 2
GAMG:  Solving for p, Initial residual = 0.034126198, Final residual = 0.00029199585, No Iterations 4
GAMG:  Solving for p, Initial residual = 0.0037617453, Final residual = 3.7293293e-05, No Iterations 3
time step continuity errors : sum local = 3.6174666e-08, global = 1.274631e-10, cumulative = -1.1849689e-06
smoothSolver:  Solving for epsilon, Initial residual = 0.0021999191, Final residual = 8.3795357e-05, No Iterations 1
smoothSolver:  Solving for k, Initial residual = 0.011190181, Final residual = 0.00036141511, No Iterations 1
ExecutionTime = 1896.71 s  ClockTime = 1906 s

Time = 27

smoothSolver:  Solving for Ux, Initial residual = 0.0017602364, Final residual = 5.5084917e-05, No Iterations 2
smoothSolver:  Solving for Uy, Initial residual = 0.020771524, Final residual = 0.0010735605, No Iterations 2
smoothSolver:  Solving for Uz, Initial residual = 0.026683643, Final residual = 0.00088079093, No Iterations 2
GAMG:  Solving for p, Initial residual = 0.03402572, Final residual = 0.00028289559, No Iterations 4
GAMG:  Solving for p, Initial residual = 0.0037014618, Final residual = 3.663778e-05, No Iterations 3
time step continuity errors : sum local = 3.4449883e-08, global = 8.4206268e-10, cumulative = -1.1841268e-06
smoothSolver:  Solving for epsilon, Initial residual = 0.0020801694, Final residual = 8.1434811e-05, No Iterations 1
smoothSolver:  Solving for k, Initial residual = 0.010660898, Final residual = 0.00035183479, No Iterations 1
ExecutionTime = 1966.28 s  ClockTime = 1976 s

Time = 28

smoothSolver:  Solving for Ux, Initial residual = 0.0017157356, Final residual = 5.3661417e-05, No Iterations 2
smoothSolver:  Solving for Uy, Initial residual = 0.020466729, Final residual = 0.0010609518, No Iterations 2
smoothSolver:  Solving for Uz, Initial residual = 0.026242045, Final residual = 0.00086610431, No Iterations 2
GAMG:  Solving for p, Initial residual = 0.033630963, Final residual = 0.00027140362, No Iterations 4
GAMG:  Solving for p, Initial residual = 0.003518853, Final residual = 1.3868107e-05, No Iterations 4
time step continuity errors : sum local = 1.3081995e-08, global = -1.3887028e-10, cumulative = -1.1842657e-06
smoothSolver:  Solving for epsilon, Initial residual = 0.0019710168, Final residual = 7.9265168e-05, No Iterations 1
smoothSolver:  Solving for k, Initial residual = 0.010181861, Final residual = 0.00034329331, No Iterations 1
ExecutionTime = 2038.43 s  ClockTime = 2048 s

Time = 29

smoothSolver:  Solving for Ux, Initial residual = 0.0016739193, Final residual = 5.2289874e-05, No Iterations 2
smoothSolver:  Solving for Uy, Initial residual = 0.020165652, Final residual = 0.0010482646, No Iterations 2
smoothSolver:  Solving for Uz, Initial residual = 0.025811894, Final residual = 0.00085128281, No Iterations 2
GAMG:  Solving for p, Initial residual = 0.032203084, Final residual = 0.00025036484, No Iterations 4
GAMG:  Solving for p, Initial residual = 0.0033222581, Final residual = 1.3407525e-05, No Iterations 4
time step continuity errors : sum local = 1.2778339e-08, global = -6.2368476e-10, cumulative = -1.1848894e-06
smoothSolver:  Solving for epsilon, Initial residual = 0.0018712695, Final residual = 7.7262575e-05, No Iterations 1
smoothSolver:  Solving for k, Initial residual = 0.0097472929, Final residual = 0.00033570602, No Iterations 1
ExecutionTime = 2110.13 s  ClockTime = 2120 s

Time = 30

smoothSolver:  Solving for Ux, Initial residual = 0.0016346026, Final residual = 5.0969648e-05, No Iterations 2
smoothSolver:  Solving for Uy, Initial residual = 0.019865523, Final residual = 0.0010353421, No Iterations 2
smoothSolver:  Solving for Uz, Initial residual = 0.025392287, Final residual = 0.00083622853, No Iterations 2
GAMG:  Solving for p, Initial residual = 0.030951342, Final residual = 0.00023339838, No Iterations 4
GAMG:  Solving for p, Initial residual = 0.0031503514, Final residual = 1.281069e-05, No Iterations 4
time step continuity errors : sum local = 1.2329506e-08, global = -7.8344531e-10, cumulative = -1.1856728e-06
smoothSolver:  Solving for epsilon, Initial residual = 0.0017799635, Final residual = 7.5416662e-05, No Iterations 1
smoothSolver:  Solving for k, Initial residual = 0.009352081, Final residual = 0.000328868, No Iterations 1
ExecutionTime = 2182.09 s  ClockTime = 2192 s

Time = 31

smoothSolver:  Solving for Ux, Initial residual = 0.0015973188, Final residual = 4.9699123e-05, No Iterations 2
smoothSolver:  Solving for Uy, Initial residual = 0.019566293, Final residual = 0.0010223885, No Iterations 2
smoothSolver:  Solving for Uz, Initial residual = 0.024980059, Final residual = 0.00082109613, No Iterations 2
GAMG:  Solving for p, Initial residual = 0.029823242, Final residual = 0.00021673539, No Iterations 4
GAMG:  Solving for p, Initial residual = 0.0029935857, Final residual = 1.2176889e-05, No Iterations 4
time step continuity errors : sum local = 1.1826778e-08, global = -9.0043071e-10, cumulative = -1.1865732e-06
smoothSolver:  Solving for epsilon, Initial residual = 0.0016961421, Final residual = 7.3708124e-05, No Iterations 1
smoothSolver:  Solving for k, Initial residual = 0.008991775, Final residual = 0.00032267284, No Iterations 1
ExecutionTime = 2253.58 s  ClockTime = 2263 s

Time = 32

smoothSolver:  Solving for Ux, Initial residual = 0.0015618174, Final residual = 4.8470959e-05, No Iterations 2
smoothSolver:  Solving for Uy, Initial residual = 0.019267423, Final residual = 0.0010092524, No Iterations 2
smoothSolver:  Solving for Uz, Initial residual = 0.024578218, Final residual = 0.00080592878, No Iterations 2
GAMG:  Solving for p, Initial residual = 0.028806706, Final residual = 0.00020222429, No Iterations 4
GAMG:  Solving for p, Initial residual = 0.0028517375, Final residual = 1.1581386e-05, No Iterations 4
time step continuity errors : sum local = 1.1343568e-08, global = -9.4861639e-10, cumulative = -1.1875219e-06
smoothSolver:  Solving for epsilon, Initial residual = 0.0016188824, Final residual = 7.2108183e-05, No Iterations 1
smoothSolver:  Solving for k, Initial residual = 0.0086631035, Final residual = 0.00031702505, No Iterations 1
ExecutionTime = 2325.63 s  ClockTime = 2335 s

Time = 33

smoothSolver:  Solving for Ux, Initial residual = 0.0015279334, Final residual = 4.7290075e-05, No Iterations 2
smoothSolver:  Solving for Uy, Initial residual = 0.01896551, Final residual = 0.00099584232, No Iterations 2
smoothSolver:  Solving for Uz, Initial residual = 0.024186975, Final residual = 0.00079099637, No Iterations 2
GAMG:  Solving for p, Initial residual = 0.027888107, Final residual = 0.0001901442, No Iterations 4
GAMG:  Solving for p, Initial residual = 0.0027222387, Final residual = 1.1063404e-05, No Iterations 4
time step continuity errors : sum local = 1.0921337e-08, global = -9.4458557e-10, cumulative = -1.1884665e-06
smoothSolver:  Solving for epsilon, Initial residual = 0.001547482, Final residual = 7.0610296e-05, No Iterations 1
smoothSolver:  Solving for k, Initial residual = 0.008365574, Final residual = 0.00031185887, No Iterations 1
ExecutionTime = 2397.55 s  ClockTime = 2407 s

Time = 34

smoothSolver:  Solving for Ux, Initial residual = 0.0014955329, Final residual = 4.6151899e-05, No Iterations 2
smoothSolver:  Solving for Uy, Initial residual = 0.01866121, Final residual = 0.00098202142, No Iterations 2
smoothSolver:  Solving for Uz, Initial residual = 0.023808351, Final residual = 0.00077641265, No Iterations 2
GAMG:  Solving for p, Initial residual = 0.027043317, Final residual = 0.00018009002, No Iterations 4
GAMG:  Solving for p, Initial residual = 0.0026032803, Final residual = 1.0610032e-05, No Iterations 4
time step continuity errors : sum local = 1.0549449e-08, global = -8.8276153e-10, cumulative = -1.1893492e-06
smoothSolver:  Solving for epsilon, Initial residual = 0.0014815129, Final residual = 6.9196256e-05, No Iterations 1
smoothSolver:  Solving for k, Initial residual = 0.008095027, Final residual = 0.00030712587, No Iterations 1
ExecutionTime = 2469.62 s  ClockTime = 2480 s

Time = 35

smoothSolver:  Solving for Ux, Initial residual = 0.0014646095, Final residual = 4.5057845e-05, No Iterations 2
smoothSolver:  Solving for Uy, Initial residual = 0.018353721, Final residual = 0.00096776418, No Iterations 2
smoothSolver:  Solving for Uz, Initial residual = 0.023442188, Final residual = 0.00076230045, No Iterations 2
GAMG:  Solving for p, Initial residual = 0.026261813, Final residual = 0.00017138199, No Iterations 4
GAMG:  Solving for p, Initial residual = 0.0024941597, Final residual = 1.0143935e-05, No Iterations 4
time step continuity errors : sum local = 1.0153259e-08, global = -7.4909645e-10, cumulative = -1.1900983e-06
smoothSolver:  Solving for epsilon, Initial residual = 0.0014207656, Final residual = 6.7865156e-05, No Iterations 1
smoothSolver:  Solving for k, Initial residual = 0.0078457682, Final residual = 0.00030276293, No Iterations 1
ExecutionTime = 2540.91 s  ClockTime = 2551 s

Time = 36

smoothSolver:  Solving for Ux, Initial residual = 0.001435107, Final residual = 4.4004116e-05, No Iterations 2
smoothSolver:  Solving for Uy, Initial residual = 0.018044276, Final residual = 0.00095305956, No Iterations 2
smoothSolver:  Solving for Uz, Initial residual = 0.023090403, Final residual = 0.00074868605, No Iterations 2
GAMG:  Solving for p, Initial residual = 0.025534925, Final residual = 0.00016378732, No Iterations 4
GAMG:  Solving for p, Initial residual = 0.0023947432, Final residual = 9.6079026e-06, No Iterations 4
time step continuity errors : sum local = 9.6749606e-09, global = -5.1231436e-10, cumulative = -1.1906106e-06
smoothSolver:  Solving for epsilon, Initial residual = 0.0013646954, Final residual = 6.6610227e-05, No Iterations 1
smoothSolver:  Solving for k, Initial residual = 0.0076146577, Final residual = 0.00029873201, No Iterations 1
ExecutionTime = 2612.44 s  ClockTime = 2622 s

Time = 37

smoothSolver:  Solving for Ux, Initial residual = 0.0014068016, Final residual = 4.2993358e-05, No Iterations 2
smoothSolver:  Solving for Uy, Initial residual = 0.017735582, Final residual = 0.00093804032, No Iterations 2
smoothSolver:  Solving for Uz, Initial residual = 0.022754929, Final residual = 0.00073555872, No Iterations 2
GAMG:  Solving for p, Initial residual = 0.024857067, Final residual = 0.00015720019, No Iterations 4
GAMG:  Solving for p, Initial residual = 0.0023033131, Final residual = 8.9588857e-06, No Iterations 4
time step continuity errors : sum local = 9.0713671e-09, global = -1.3765693e-10, cumulative = -1.1907483e-06
smoothSolver:  Solving for epsilon, Initial residual = 0.0013125939, Final residual = 6.5420426e-05, No Iterations 1
smoothSolver:  Solving for k, Initial residual = 0.0073996669, Final residual = 0.00029502769, No Iterations 1
ExecutionTime = 2684.08 s  ClockTime = 2694 s

Time = 38

smoothSolver:  Solving for Ux, Initial residual = 0.0013795472, Final residual = 4.2015037e-05, No Iterations 2
smoothSolver:  Solving for Uy, Initial residual = 0.017427882, Final residual = 0.0009226492, No Iterations 2
smoothSolver:  Solving for Uz, Initial residual = 0.022436889, Final residual = 0.00072304655, No Iterations 2
GAMG:  Solving for p, Initial residual = 0.024216508, Final residual = 0.00015127162, No Iterations 4
GAMG:  Solving for p, Initial residual = 0.0022183854, Final residual = 8.2505931e-06, No Iterations 4
time step continuity errors : sum local = 8.3961305e-09, global = 3.4597802e-10, cumulative = -1.1904023e-06
smoothSolver:  Solving for epsilon, Initial residual = 0.0012640627, Final residual = 6.4282665e-05, No Iterations 1
smoothSolver:  Solving for k, Initial residual = 0.0071992538, Final residual = 0.00029162186, No Iterations 1
ExecutionTime = 2755.92 s  ClockTime = 2766 s

Time = 39

smoothSolver:  Solving for Ux, Initial residual = 0.0013532558, Final residual = 4.1068564e-05, No Iterations 2
smoothSolver:  Solving for Uy, Initial residual = 0.017119443, Final residual = 0.00090704305, No Iterations 2
smoothSolver:  Solving for Uz, Initial residual = 0.022133843, Final residual = 0.00071119512, No Iterations 2
GAMG:  Solving for p, Initial residual = 0.023627692, Final residual = 0.00014601037, No Iterations 4
GAMG:  Solving for p, Initial residual = 0.0021411974, Final residual = 7.7671378e-06, No Iterations 4
time step continuity errors : sum local = 7.9406053e-09, global = 7.9118462e-10, cumulative = -1.1896111e-06
smoothSolver:  Solving for epsilon, Initial residual = 0.0012186922, Final residual = 6.3182618e-05, No Iterations 1
smoothSolver:  Solving for k, Initial residual = 0.0070121964, Final residual = 0.0002884731, No Iterations 1
ExecutionTime = 2827.43 s  ClockTime = 2838 s

Time = 40

smoothSolver:  Solving for Ux, Initial residual = 0.0013278638, Final residual = 4.015251e-05, No Iterations 2
smoothSolver:  Solving for Uy, Initial residual = 0.016811314, Final residual = 0.00089121283, No Iterations 2
smoothSolver:  Solving for Uz, Initial residual = 0.021843013, Final residual = 0.00069980189, No Iterations 2
GAMG:  Solving for p, Initial residual = 0.023069105, Final residual = 0.00014107207, No Iterations 4
GAMG:  Solving for p, Initial residual = 0.0020691991, Final residual = 7.4825383e-06, No Iterations 4
time step continuity errors : sum local = 7.6821259e-09, global = 1.0191172e-09, cumulative = -1.188592e-06
smoothSolver:  Solving for epsilon, Initial residual = 0.0011762488, Final residual = 6.2117069e-05, No Iterations 1
smoothSolver:  Solving for k, Initial residual = 0.0068374513, Final residual = 0.00028553403, No Iterations 1
ExecutionTime = 2898.9 s  ClockTime = 2909 s

Time = 41

smoothSolver:  Solving for Ux, Initial residual = 0.0013032712, Final residual = 3.9261699e-05, No Iterations 2
smoothSolver:  Solving for Uy, Initial residual = 0.01650375, Final residual = 0.00087510372, No Iterations 2
smoothSolver:  Solving for Uz, Initial residual = 0.021563582, Final residual = 0.00068888893, No Iterations 2
GAMG:  Solving for p, Initial residual = 0.022542754, Final residual = 0.00013616611, No Iterations 4
GAMG:  Solving for p, Initial residual = 0.0020033203, Final residual = 7.3331567e-06, No Iterations 4
time step continuity errors : sum local = 7.5580489e-09, global = 1.0911668e-09, cumulative = -1.1875008e-06
smoothSolver:  Solving for epsilon, Initial residual = 0.001136273, Final residual = 6.1074799e-05, No Iterations 1
smoothSolver:  Solving for k, Initial residual = 0.0066738868, Final residual = 0.0002827892, No Iterations 1
ExecutionTime = 2970.21 s  ClockTime = 2981 s

Time = 42

smoothSolver:  Solving for Ux, Initial residual = 0.0012794666, Final residual = 3.8399306e-05, No Iterations 2
smoothSolver:  Solving for Uy, Initial residual = 0.016197118, Final residual = 0.00085882451, No Iterations 2
smoothSolver:  Solving for Uz, Initial residual = 0.021296304, Final residual = 0.00067840351, No Iterations 2
GAMG:  Solving for p, Initial residual = 0.02207194, Final residual = 0.00013173706, No Iterations 4
GAMG:  Solving for p, Initial residual = 0.0019435671, Final residual = 7.2814246e-06, No Iterations 4
time step continuity errors : sum local = 7.5315066e-09, global = 1.1700239e-09, cumulative = -1.1863308e-06
smoothSolver:  Solving for epsilon, Initial residual = 0.0010986971, Final residual = 6.0046975e-05, No Iterations 1
smoothSolver:  Solving for k, Initial residual = 0.0065206757, Final residual = 0.00028021155, No Iterations 1
ExecutionTime = 3041.69 s  ClockTime = 3052 s

Time = 43

smoothSolver:  Solving for Ux, Initial residual = 0.0012565594, Final residual = 3.7560326e-05, No Iterations 2
smoothSolver:  Solving for Uy, Initial residual = 0.015891896, Final residual = 0.00084238108, No Iterations 2
smoothSolver:  Solving for Uz, Initial residual = 0.021042192, Final residual = 0.00066829652, No Iterations 2
GAMG:  Solving for p, Initial residual = 0.021634478, Final residual = 0.00012796973, No Iterations 4
GAMG:  Solving for p, Initial residual = 0.0018890117, Final residual = 7.2540378e-06, No Iterations 4
time step continuity errors : sum local = 7.5273705e-09, global = 1.2768394e-09, cumulative = -1.185054e-06
smoothSolver:  Solving for epsilon, Initial residual = 0.0010631944, Final residual = 5.9037393e-05, No Iterations 1
smoothSolver:  Solving for k, Initial residual = 0.0063782266, Final residual = 0.00027778924, No Iterations 1
ExecutionTime = 3112.99 s  ClockTime = 3123 s

Time = 44

smoothSolver:  Solving for Ux, Initial residual = 0.0012343894, Final residual = 3.6747118e-05, No Iterations 2
smoothSolver:  Solving for Uy, Initial residual = 0.015588412, Final residual = 0.00082569356, No Iterations 2
smoothSolver:  Solving for Uz, Initial residual = 0.020799543, Final residual = 0.00065851216, No Iterations 2
GAMG:  Solving for p, Initial residual = 0.021220293, Final residual = 0.00012477769, No Iterations 4
GAMG:  Solving for p, Initial residual = 0.0018397561, Final residual = 7.2359259e-06, No Iterations 4
time step continuity errors : sum local = 7.5304882e-09, global = 1.4151781e-09, cumulative = -1.1836388e-06
smoothSolver:  Solving for epsilon, Initial residual = 0.0010296237, Final residual = 5.80393e-05, No Iterations 1
smoothSolver:  Solving for k, Initial residual = 0.0062450338, Final residual = 0.00027550673, No Iterations 1
ExecutionTime = 3184.52 s  ClockTime = 3195 s

Time = 45

smoothSolver:  Solving for Ux, Initial residual = 0.0012128728, Final residual = 3.5956739e-05, No Iterations 2
smoothSolver:  Solving for Uy, Initial residual = 0.01528573, Final residual = 0.00080891574, No Iterations 2
smoothSolver:  Solving for Uz, Initial residual = 0.020567352, Final residual = 0.00064908577, No Iterations 2
GAMG:  Solving for p, Initial residual = 0.020840951, Final residual = 0.00012189786, No Iterations 4
GAMG:  Solving for p, Initial residual = 0.0017941367, Final residual = 7.2034438e-06, No Iterations 4
time step continuity errors : sum local = 7.5165504e-09, global = 1.5696497e-09, cumulative = -1.1820691e-06
smoothSolver:  Solving for epsilon, Initial residual = 0.00099799863, Final residual = 5.7061821e-05, No Iterations 1
smoothSolver:  Solving for k, Initial residual = 0.0061201029, Final residual = 0.00027336173, No Iterations 1
ExecutionTime = 3256.03 s  ClockTime = 3267 s

Time = 46

smoothSolver:  Solving for Ux, Initial residual = 0.0011919142, Final residual = 3.5187749e-05, No Iterations 2
smoothSolver:  Solving for Uy, Initial residual = 0.014985112, Final residual = 0.00079198837, No Iterations 2
smoothSolver:  Solving for Uz, Initial residual = 0.020343625, Final residual = 0.00063991366, No Iterations 2
GAMG:  Solving for p, Initial residual = 0.020460352, Final residual = 0.00011948979, No Iterations 4
GAMG:  Solving for p, Initial residual = 0.0017511469, Final residual = 7.1516958e-06, No Iterations 4
time step continuity errors : sum local = 7.4800082e-09, global = 1.7522092e-09, cumulative = -1.1803169e-06
smoothSolver:  Solving for epsilon, Initial residual = 0.00096813635, Final residual = 5.610413e-05, No Iterations 1
smoothSolver:  Solving for k, Initial residual = 0.0060023896, Final residual = 0.00027134476, No Iterations 1
ExecutionTime = 3327.84 s  ClockTime = 3338 s

Time = 47

smoothSolver:  Solving for Ux, Initial residual = 0.0011715294, Final residual = 3.4439277e-05, No Iterations 2
smoothSolver:  Solving for Uy, Initial residual = 0.014685788, Final residual = 0.00077502129, No Iterations 2
smoothSolver:  Solving for Uz, Initial residual = 0.020127694, Final residual = 0.00063091023, No Iterations 2
GAMG:  Solving for p, Initial residual = 0.020099107, Final residual = 0.00011799605, No Iterations 4
GAMG:  Solving for p, Initial residual = 0.0017118996, Final residual = 7.175166e-06, No Iterations 4
time step continuity errors : sum local = 7.5197068e-09, global = 2.0193161e-09, cumulative = -1.1782976e-06
smoothSolver:  Solving for epsilon, Initial residual = 0.00093972001, Final residual = 5.5160514e-05, No Iterations 1
smoothSolver:  Solving for k, Initial residual = 0.0058913218, Final residual = 0.00026947239, No Iterations 1
ExecutionTime = 3399.45 s  ClockTime = 3410 s

Time = 48

smoothSolver:  Solving for Ux, Initial residual = 0.0011516945, Final residual = 3.3711306e-05, No Iterations 2
smoothSolver:  Solving for Uy, Initial residual = 0.014387155, Final residual = 0.0007580946, No Iterations 2
smoothSolver:  Solving for Uz, Initial residual = 0.019920479, Final residual = 0.00062207011, No Iterations 2
GAMG:  Solving for p, Initial residual = 0.019766675, Final residual = 0.00011718333, No Iterations 4
GAMG:  Solving for p, Initial residual = 0.0016775358, Final residual = 7.6294282e-06, No Iterations 4
time step continuity errors : sum local = 8.0098079e-09, global = 2.3184758e-09, cumulative = -1.1759791e-06
smoothSolver:  Solving for epsilon, Initial residual = 0.00091264829, Final residual = 5.4230189e-05, No Iterations 1
smoothSolver:  Solving for k, Initial residual = 0.0057862976, Final residual = 0.00026772617, No Iterations 1
ExecutionTime = 3470.95 s  ClockTime = 3482 s

Time = 49

smoothSolver:  Solving for Ux, Initial residual = 0.0011323655, Final residual = 3.3006394e-05, No Iterations 2
smoothSolver:  Solving for Uy, Initial residual = 0.01409106, Final residual = 0.00074117978, No Iterations 2
smoothSolver:  Solving for Uz, Initial residual = 0.019720482, Final residual = 0.00061337344, No Iterations 2
GAMG:  Solving for p, Initial residual = 0.019435007, Final residual = 0.00011630572, No Iterations 4
GAMG:  Solving for p, Initial residual = 0.0016441464, Final residual = 7.6526488e-06, No Iterations 4
time step continuity errors : sum local = 8.0465614e-09, global = 1.4276093e-09, cumulative = -1.1745515e-06
smoothSolver:  Solving for epsilon, Initial residual = 0.00088685103, Final residual = 5.3324002e-05, No Iterations 1
smoothSolver:  Solving for k, Initial residual = 0.0056869519, Final residual = 0.00026609401, No Iterations 1
ExecutionTime = 3542.28 s  ClockTime = 3553 s

Time = 50

smoothSolver:  Solving for Ux, Initial residual = 0.0011135115, Final residual = 3.2323575e-05, No Iterations 2
smoothSolver:  Solving for Uy, Initial residual = 0.013796069, Final residual = 0.00072433713, No Iterations 2
smoothSolver:  Solving for Uz, Initial residual = 0.019526903, Final residual = 0.00060474814, No Iterations 2
GAMG:  Solving for p, Initial residual = 0.019099732, Final residual = 0.00011507016, No Iterations 4
GAMG:  Solving for p, Initial residual = 0.0016105689, Final residual = 6.7205687e-06, No Iterations 4
time step continuity errors : sum local = 7.0746358e-09, global = 7.1982571e-10, cumulative = -1.1738317e-06
smoothSolver:  Solving for epsilon, Initial residual = 0.00086218687, Final residual = 5.243944e-05, No Iterations 1
smoothSolver:  Solving for k, Initial residual = 0.0055927062, Final residual = 0.00026456205, No Iterations 1
ExecutionTime = 3613.67 s  ClockTime = 3624 s

Time = 51

smoothSolver:  Solving for Ux, Initial residual = 0.0010952309, Final residual = 3.1657692e-05, No Iterations 2
smoothSolver:  Solving for Uy, Initial residual = 0.013503236, Final residual = 0.00070762922, No Iterations 2
smoothSolver:  Solving for Uz, Initial residual = 0.019337732, Final residual = 0.00059614486, No Iterations 2
GAMG:  Solving for p, Initial residual = 0.018776533, Final residual = 0.00011340753, No Iterations 4
GAMG:  Solving for p, Initial residual = 0.0015784584, Final residual = 6.5362739e-06, No Iterations 4
time step continuity errors : sum local = 6.8835413e-09, global = 6.3736845e-10, cumulative = -1.1731943e-06
smoothSolver:  Solving for epsilon, Initial residual = 0.00083865065, Final residual = 5.1574988e-05, No Iterations 1
smoothSolver:  Solving for k, Initial residual = 0.005503437, Final residual = 0.00026312843, No Iterations 1
ExecutionTime = 3684.84 s  ClockTime = 3696 s

Time = 52

smoothSolver:  Solving for Ux, Initial residual = 0.0010773228, Final residual = 3.1008821e-05, No Iterations 2
smoothSolver:  Solving for Uy, Initial residual = 0.013212889, Final residual = 0.00069106539, No Iterations 2
smoothSolver:  Solving for Uz, Initial residual = 0.019153794, Final residual = 0.0005876522, No Iterations 2
GAMG:  Solving for p, Initial residual = 0.018446436, Final residual = 0.00011164898, No Iterations 4
GAMG:  Solving for p, Initial residual = 0.001546541, Final residual = 6.2924207e-06, No Iterations 4
time step continuity errors : sum local = 6.6282166e-09, global = 6.8949103e-10, cumulative = -1.1725048e-06
smoothSolver:  Solving for epsilon, Initial residual = 0.00081619209, Final residual = 5.0736906e-05, No Iterations 1
smoothSolver:  Solving for k, Initial residual = 0.0054188146, Final residual = 0.0002617922, No Iterations 1
ExecutionTime = 3756.17 s  ClockTime = 3767 s

Time = 53

smoothSolver:  Solving for Ux, Initial residual = 0.0010598432, Final residual = 3.0379926e-05, No Iterations 2
smoothSolver:  Solving for Uy, Initial residual = 0.012926572, Final residual = 0.00067473747, No Iterations 2
smoothSolver:  Solving for Uz, Initial residual = 0.018971912, Final residual = 0.00057920692, No Iterations 2
GAMG:  Solving for p, Initial residual = 0.018124936, Final residual = 0.00010969668, No Iterations 4
GAMG:  Solving for p, Initial residual = 0.0015138979, Final residual = 6.1308319e-06, No Iterations 4
time step continuity errors : sum local = 6.4564514e-09, global = 5.2773835e-10, cumulative = -1.1719771e-06
smoothSolver:  Solving for epsilon, Initial residual = 0.00079470092, Final residual = 4.9925295e-05, No Iterations 1
smoothSolver:  Solving for k, Initial residual = 0.0053387354, Final residual = 0.00026055581, No Iterations 1
ExecutionTime = 3827.54 s  ClockTime = 3839 s

Time = 54

smoothSolver:  Solving for Ux, Initial residual = 0.0010427183, Final residual = 2.9766194e-05, No Iterations 2
smoothSolver:  Solving for Uy, Initial residual = 0.012644751, Final residual = 0.00065870089, No Iterations 2
smoothSolver:  Solving for Uz, Initial residual = 0.018791666, Final residual = 0.00057083462, No Iterations 2
GAMG:  Solving for p, Initial residual = 0.017838089, Final residual = 0.00010773313, No Iterations 4
GAMG:  Solving for p, Initial residual = 0.0014824687, Final residual = 5.9836342e-06, No Iterations 4
time step continuity errors : sum local = 6.2977355e-09, global = 1.6484329e-10, cumulative = -1.1718123e-06
smoothSolver:  Solving for epsilon, Initial residual = 0.00077423001, Final residual = 4.9139904e-05, No Iterations 1
smoothSolver:  Solving for k, Initial residual = 0.0052631794, Final residual = 0.00025940924, No Iterations 1
ExecutionTime = 3899.25 s  ClockTime = 3910 s

Time = 55

smoothSolver:  Solving for Ux, Initial residual = 0.001025953, Final residual = 2.9166999e-05, No Iterations 2
smoothSolver:  Solving for Uy, Initial residual = 0.012368074, Final residual = 0.00064305949, No Iterations 2
smoothSolver:  Solving for Uz, Initial residual = 0.01861149, Final residual = 0.00056260907, No Iterations 2
GAMG:  Solving for p, Initial residual = 0.017540683, Final residual = 0.00010580094, No Iterations 4
GAMG:  Solving for p, Initial residual = 0.0014512429, Final residual = 5.9830567e-06, No Iterations 4
time step continuity errors : sum local = 6.2903145e-09, global = -7.0771644e-11, cumulative = -1.171883e-06
smoothSolver:  Solving for epsilon, Initial residual = 0.00075460241, Final residual = 4.8367717e-05, No Iterations 1
smoothSolver:  Solving for k, Initial residual = 0.0051914381, Final residual = 0.00025832909, No Iterations 1
ExecutionTime = 3970.81 s  ClockTime = 3982 s

Time = 56

smoothSolver:  Solving for Ux, Initial residual = 0.0010096057, Final residual = 2.8582842e-05, No Iterations 2
smoothSolver:  Solving for Uy, Initial residual = 0.012097596, Final residual = 0.00062778141, No Iterations 2
smoothSolver:  Solving for Uz, Initial residual = 0.018430577, Final residual = 0.00055459382, No Iterations 2
GAMG:  Solving for p, Initial residual = 0.017258629, Final residual = 0.00010384, No Iterations 4
GAMG:  Solving for p, Initial residual = 0.0014212286, Final residual = 6.013758e-06, No Iterations 4
time step continuity errors : sum local = 6.312713e-09, global = -1.1606356e-10, cumulative = -1.1719991e-06
smoothSolver:  Solving for epsilon, Initial residual = 0.00073572791, Final residual = 4.7610674e-05, No Iterations 1
smoothSolver:  Solving for k, Initial residual = 0.0051232405, Final residual = 0.00025731027, No Iterations 1
ExecutionTime = 4042.46 s  ClockTime = 4054 s

Time = 57

smoothSolver:  Solving for Ux, Initial residual = 0.00099364597, Final residual = 2.8014708e-05, No Iterations 2
smoothSolver:  Solving for Uy, Initial residual = 0.011833056, Final residual = 0.00061290603, No Iterations 2
smoothSolver:  Solving for Uz, Initial residual = 0.018246372, Final residual = 0.00054674481, No Iterations 2
GAMG:  Solving for p, Initial residual = 0.016999049, Final residual = 0.00010192035, No Iterations 4
GAMG:  Solving for p, Initial residual = 0.0013913889, Final residual = 5.9737574e-06, No Iterations 4
time step continuity errors : sum local = 6.2580686e-09, global = -1.8291713e-10, cumulative = -1.172182e-06
smoothSolver:  Solving for epsilon, Initial residual = 0.00071763728, Final residual = 4.6864686e-05, No Iterations 1
smoothSolver:  Solving for k, Initial residual = 0.0050582922, Final residual = 0.00025636169, No Iterations 1
ExecutionTime = 4113.74 s  ClockTime = 4125 s

Time = 58

smoothSolver:  Solving for Ux, Initial residual = 0.00097802043, Final residual = 2.7460116e-05, No Iterations 2
smoothSolver:  Solving for Uy, Initial residual = 0.011574242, Final residual = 0.00059844025, No Iterations 2
smoothSolver:  Solving for Uz, Initial residual = 0.018057665, Final residual = 0.00053901564, No Iterations 2
GAMG:  Solving for p, Initial residual = 0.01673882, Final residual = 0.00010005353, No Iterations 4
GAMG:  Solving for p, Initial residual = 0.0013627596, Final residual = 5.9477288e-06, No Iterations 4
time step continuity errors : sum local = 6.2156155e-09, global = -3.8365327e-10, cumulative = -1.1725657e-06
smoothSolver:  Solving for epsilon, Initial residual = 0.00070025462, Final residual = 4.6127869e-05, No Iterations 1
smoothSolver:  Solving for k, Initial residual = 0.0049963811, Final residual = 0.00025547631, No Iterations 1
ExecutionTime = 4185.14 s  ClockTime = 4196 s

Time = 59

smoothSolver:  Solving for Ux, Initial residual = 0.00096266618, Final residual = 2.6917839e-05, No Iterations 2
smoothSolver:  Solving for Uy, Initial residual = 0.011321251, Final residual = 0.0005844076, No Iterations 2
smoothSolver:  Solving for Uz, Initial residual = 0.017864688, Final residual = 0.000531589, No Iterations 2
GAMG:  Solving for p, Initial residual = 0.016490824, Final residual = 9.8336534e-05, No Iterations 4
GAMG:  Solving for p, Initial residual = 0.0013355151, Final residual = 6.098468e-06, No Iterations 4
time step continuity errors : sum local = 6.3548484e-09, global = -8.0183067e-10, cumulative = -1.1733675e-06
smoothSolver:  Solving for epsilon, Initial residual = 0.00068351021, Final residual = 4.5391959e-05, No Iterations 1
smoothSolver:  Solving for k, Initial residual = 0.0049372187, Final residual = 0.00025462177, No Iterations 1
ExecutionTime = 4256.34 s  ClockTime = 4268 s

Time = 60

smoothSolver:  Solving for Ux, Initial residual = 0.00094754421, Final residual = 2.6388498e-05, No Iterations 2
smoothSolver:  Solving for Uy, Initial residual = 0.011075469, Final residual = 0.00057082879, No Iterations 2
smoothSolver:  Solving for Uz, Initial residual = 0.017667772, Final residual = 0.00052455621, No Iterations 2
GAMG:  Solving for p, Initial residual = 0.01625783, Final residual = 9.6913582e-05, No Iterations 4
GAMG:  Solving for p, Initial residual = 0.0013091878, Final residual = 6.0144866e-06, No Iterations 4
time step continuity errors : sum local = 6.2460877e-09, global = -1.1695386e-09, cumulative = -1.174537e-06
smoothSolver:  Solving for epsilon, Initial residual = 0.00066726724, Final residual = 4.4661759e-05, No Iterations 1
smoothSolver:  Solving for k, Initial residual = 0.0048806099, Final residual = 0.00025380286, No Iterations 1
ExecutionTime = 4327.72 s  ClockTime = 4339 s

Time = 61

smoothSolver:  Solving for Ux, Initial residual = 0.00093267428, Final residual = 2.587576e-05, No Iterations 2
smoothSolver:  Solving for Uy, Initial residual = 0.010836122, Final residual = 0.00055766585, No Iterations 2
smoothSolver:  Solving for Uz, Initial residual = 0.017467685, Final residual = 0.00051783537, No Iterations 2
GAMG:  Solving for p, Initial residual = 0.016033445, Final residual = 9.5841864e-05, No Iterations 4
GAMG:  Solving for p, Initial residual = 0.0012835654, Final residual = 5.8274978e-06, No Iterations 4
time step continuity errors : sum local = 6.028753e-09, global = -1.1852744e-09, cumulative = -1.1757223e-06
smoothSolver:  Solving for epsilon, Initial residual = 0.00065151711, Final residual = 4.3925855e-05, No Iterations 1
smoothSolver:  Solving for k, Initial residual = 0.0048263192, Final residual = 0.00025300201, No Iterations 1
ExecutionTime = 4399 s  ClockTime = 4410 s

Time = 62

smoothSolver:  Solving for Ux, Initial residual = 0.00091798251, Final residual = 2.537816e-05, No Iterations 2
smoothSolver:  Solving for Uy, Initial residual = 0.010603953, Final residual = 0.00054495916, No Iterations 2
smoothSolver:  Solving for Uz, Initial residual = 0.017265094, Final residual = 0.00051135586, No Iterations 2
GAMG:  Solving for p, Initial residual = 0.015807294, Final residual = 9.4817692e-05, No Iterations 4
GAMG:  Solving for p, Initial residual = 0.0012584188, Final residual = 5.6663121e-06, No Iterations 4
time step continuity errors : sum local = 5.8371368e-09, global = -1.1174804e-09, cumulative = -1.1768398e-06
smoothSolver:  Solving for epsilon, Initial residual = 0.00063628511, Final residual = 4.3201236e-05, No Iterations 1
smoothSolver:  Solving for k, Initial residual = 0.0047741637, Final residual = 0.00025223563, No Iterations 1
ExecutionTime = 4470.67 s  ClockTime = 4482 s

Time = 63

smoothSolver:  Solving for Ux, Initial residual = 0.00090346193, Final residual = 2.4894475e-05, No Iterations 2
smoothSolver:  Solving for Uy, Initial residual = 0.010378282, Final residual = 0.0005326997, No Iterations 2
smoothSolver:  Solving for Uz, Initial residual = 0.017059723, Final residual = 0.00050512801, No Iterations 2
GAMG:  Solving for p, Initial residual = 0.015584898, Final residual = 9.4049437e-05, No Iterations 4
GAMG:  Solving for p, Initial residual = 0.0012338373, Final residual = 5.4724261e-06, No Iterations 4
time step continuity errors : sum local = 5.6115335e-09, global = -1.0051208e-09, cumulative = -1.1778449e-06
smoothSolver:  Solving for epsilon, Initial residual = 0.00062158369, Final residual = 4.2482678e-05, No Iterations 1
smoothSolver:  Solving for k, Initial residual = 0.0047240226, Final residual = 0.00025148925, No Iterations 1
ExecutionTime = 4542.13 s  ClockTime = 4554 s

Time = 64

smoothSolver:  Solving for Ux, Initial residual = 0.00088913878, Final residual = 2.4426125e-05, No Iterations 2
smoothSolver:  Solving for Uy, Initial residual = 0.010159465, Final residual = 0.00052082544, No Iterations 2
smoothSolver:  Solving for Uz, Initial residual = 0.016853119, Final residual = 0.00049918038, No Iterations 2
GAMG:  Solving for p, Initial residual = 0.015367991, Final residual = 9.3443246e-05, No Iterations 4
GAMG:  Solving for p, Initial residual = 0.0012106289, Final residual = 5.2816587e-06, No Iterations 4
time step continuity errors : sum local = 5.3889876e-09, global = -8.8291281e-10, cumulative = -1.1787278e-06
smoothSolver:  Solving for epsilon, Initial residual = 0.0006074802, Final residual = 4.1772749e-05, No Iterations 1
smoothSolver:  Solving for k, Initial residual = 0.0046758286, Final residual = 0.00025077394, No Iterations 1
ExecutionTime = 4613.73 s  ClockTime = 4625 s

Time = 65

smoothSolver:  Solving for Ux, Initial residual = 0.00087500972, Final residual = 2.3973033e-05, No Iterations 2
smoothSolver:  Solving for Uy, Initial residual = 0.0099464453, Final residual = 0.0005093443, No Iterations 2
smoothSolver:  Solving for Uz, Initial residual = 0.016645623, Final residual = 0.00049351814, No Iterations 2
GAMG:  Solving for p, Initial residual = 0.015165393, Final residual = 9.2675835e-05, No Iterations 4
GAMG:  Solving for p, Initial residual = 0.0011886921, Final residual = 5.1022647e-06, No Iterations 4
time step continuity errors : sum local = 5.1780801e-09, global = -7.6798221e-10, cumulative = -1.1794958e-06
smoothSolver:  Solving for epsilon, Initial residual = 0.00059383142, Final residual = 4.1074586e-05, No Iterations 1
smoothSolver:  Solving for k, Initial residual = 0.0046296073, Final residual = 0.00025008667, No Iterations 1
ExecutionTime = 4684.99 s  ClockTime = 4697 s

Time = 66

smoothSolver:  Solving for Ux, Initial residual = 0.0008610366, Final residual = 2.3534377e-05, No Iterations 2
smoothSolver:  Solving for Uy, Initial residual = 0.0097382975, Final residual = 0.00049829182, No Iterations 2
smoothSolver:  Solving for Uz, Initial residual = 0.016437403, Final residual = 0.0004880792, No Iterations 2
GAMG:  Solving for p, Initial residual = 0.014972969, Final residual = 9.1445156e-05, No Iterations 4
GAMG:  Solving for p, Initial residual = 0.0011670889, Final residual = 4.9476332e-06, No Iterations 4
time step continuity errors : sum local = 4.9919867e-09, global = -6.7868919e-10, cumulative = -1.1801745e-06
smoothSolver:  Solving for epsilon, Initial residual = 0.00058057408, Final residual = 4.039121e-05, No Iterations 1
smoothSolver:  Solving for k, Initial residual = 0.0045852551, Final residual = 0.00024942795, No Iterations 1
ExecutionTime = 4756.44 s  ClockTime = 4768 s

Time = 67

smoothSolver:  Solving for Ux, Initial residual = 0.00084720875, Final residual = 2.3110519e-05, No Iterations 2
smoothSolver:  Solving for Uy, Initial residual = 0.0095347697, Final residual = 0.00048765462, No Iterations 2
smoothSolver:  Solving for Uz, Initial residual = 0.01623023, Final residual = 0.00048291209, No Iterations 2
GAMG:  Solving for p, Initial residual = 0.01478576, Final residual = 8.9922696e-05, No Iterations 4
GAMG:  Solving for p, Initial residual = 0.0011458936, Final residual = 4.8094992e-06, No Iterations 4
time step continuity errors : sum local = 4.8228229e-09, global = -6.1690426e-10, cumulative = -1.1807914e-06
smoothSolver:  Solving for epsilon, Initial residual = 0.00056781114, Final residual = 3.9722911e-05, No Iterations 1
smoothSolver:  Solving for k, Initial residual = 0.0045425483, Final residual = 0.00024878794, No Iterations 1
ExecutionTime = 4827.65 s  ClockTime = 4839 s

Time = 68

smoothSolver:  Solving for Ux, Initial residual = 0.00083354246, Final residual = 2.270258e-05, No Iterations 2
smoothSolver:  Solving for Uy, Initial residual = 0.0093358141, Final residual = 0.00047743651, No Iterations 2
smoothSolver:  Solving for Uz, Initial residual = 0.016024074, Final residual = 0.00047798206, No Iterations 2
GAMG:  Solving for p, Initial residual = 0.014611017, Final residual = 8.8133864e-05, No Iterations 4
GAMG:  Solving for p, Initial residual = 0.0011256277, Final residual = 4.6838195e-06, No Iterations 4
time step continuity errors : sum local = 4.6661228e-09, global = -5.7569827e-10, cumulative = -1.1813671e-06
smoothSolver:  Solving for epsilon, Initial residual = 0.00055552668, Final residual = 3.907039e-05, No Iterations 1
smoothSolver:  Solving for k, Initial residual = 0.0045014793, Final residual = 0.0002481785, No Iterations 1
ExecutionTime = 4898.99 s  ClockTime = 4911 s

Time = 69

smoothSolver:  Solving for Ux, Initial residual = 0.00082004807, Final residual = 2.2309676e-05, No Iterations 2
smoothSolver:  Solving for Uy, Initial residual = 0.0091414034, Final residual = 0.00046761542, No Iterations 2
smoothSolver:  Solving for Uz, Initial residual = 0.015818478, Final residual = 0.00047319695, No Iterations 2
GAMG:  Solving for p, Initial residual = 0.014445534, Final residual = 8.6410623e-05, No Iterations 4
GAMG:  Solving for p, Initial residual = 0.0011072311, Final residual = 4.5628366e-06, No Iterations 4
time step continuity errors : sum local = 4.5142264e-09, global = -5.4400742e-10, cumulative = -1.1819111e-06
smoothSolver:  Solving for epsilon, Initial residual = 0.0005436491, Final residual = 3.8433224e-05, No Iterations 1
smoothSolver:  Solving for k, Initial residual = 0.0044619021, Final residual = 0.00024758838, No Iterations 1
ExecutionTime = 4970.24 s  ClockTime = 4982 s

Time = 70

smoothSolver:  Solving for Ux, Initial residual = 0.00080675959, Final residual = 2.1930904e-05, No Iterations 2
smoothSolver:  Solving for Uy, Initial residual = 0.0089507598, Final residual = 0.00045817029, No Iterations 2
smoothSolver:  Solving for Uz, Initial residual = 0.015612319, Final residual = 0.0004685215, No Iterations 2
GAMG:  Solving for p, Initial residual = 0.014288835, Final residual = 8.4635828e-05, No Iterations 4
GAMG:  Solving for p, Initial residual = 0.0010910958, Final residual = 4.402498e-06, No Iterations 4
time step continuity errors : sum local = 4.3242197e-09, global = -5.0988585e-10, cumulative = -1.182421e-06
smoothSolver:  Solving for epsilon, Initial residual = 0.00053215562, Final residual = 3.7811667e-05, No Iterations 1
smoothSolver:  Solving for k, Initial residual = 0.004423608, Final residual = 0.00024701576, No Iterations 1
ExecutionTime = 5041.87 s  ClockTime = 5054 s

Time = 71

smoothSolver:  Solving for Ux, Initial residual = 0.00079368291, Final residual = 2.156643e-05, No Iterations 2
smoothSolver:  Solving for Uy, Initial residual = 0.0087641481, Final residual = 0.00044911627, No Iterations 2
smoothSolver:  Solving for Uz, Initial residual = 0.015405313, Final residual = 0.00046387147, No Iterations 2
GAMG:  Solving for p, Initial residual = 0.014145974, Final residual = 8.3005895e-05, No Iterations 4
GAMG:  Solving for p, Initial residual = 0.001076577, Final residual = 4.2036574e-06, No Iterations 4
time step continuity errors : sum local = 4.0984637e-09, global = -4.7324651e-10, cumulative = -1.1828942e-06
smoothSolver:  Solving for epsilon, Initial residual = 0.0005210773, Final residual = 3.7207902e-05, No Iterations 1
smoothSolver:  Solving for k, Initial residual = 0.0043865245, Final residual = 0.00024646658, No Iterations 1
ExecutionTime = 5113.32 s  ClockTime = 5125 s

Time = 72

smoothSolver:  Solving for Ux, Initial residual = 0.00078082171, Final residual = 2.1216096e-05, No Iterations 2
smoothSolver:  Solving for Uy, Initial residual = 0.0085815955, Final residual = 0.00044044073, No Iterations 2
smoothSolver:  Solving for Uz, Initial residual = 0.01519515, Final residual = 0.00045921527, No Iterations 2
GAMG:  Solving for p, Initial residual = 0.014018398, Final residual = 8.1594962e-05, No Iterations 4
GAMG:  Solving for p, Initial residual = 0.0010630189, Final residual = 3.9799885e-06, No Iterations 4
time step continuity errors : sum local = 3.851345e-09, global = -4.3549671e-10, cumulative = -1.1833297e-06
smoothSolver:  Solving for epsilon, Initial residual = 0.00051037025, Final residual = 3.6620246e-05, No Iterations 1
smoothSolver:  Solving for k, Initial residual = 0.0043505396, Final residual = 0.00024593291, No Iterations 1
ExecutionTime = 5185.06 s  ClockTime = 5197 s

Time = 73

smoothSolver:  Solving for Ux, Initial residual = 0.00076818758, Final residual = 2.0877886e-05, No Iterations 2
smoothSolver:  Solving for Uy, Initial residual = 0.0084035906, Final residual = 0.00043216075, No Iterations 2
smoothSolver:  Solving for Uz, Initial residual = 0.014981408, Final residual = 0.00045447592, No Iterations 2
GAMG:  Solving for p, Initial residual = 0.013880667, Final residual = 8.0209195e-05, No Iterations 4
GAMG:  Solving for p, Initial residual = 0.0010503731, Final residual = 3.6835445e-06, No Iterations 4
time step continuity errors : sum local = 3.5374748e-09, global = -3.969016e-10, cumulative = -1.1837266e-06
smoothSolver:  Solving for epsilon, Initial residual = 0.00050004, Final residual = 3.6046739e-05, No Iterations 1
smoothSolver:  Solving for k, Initial residual = 0.0043156927, Final residual = 0.00024542118, No Iterations 1
ExecutionTime = 5256.18 s  ClockTime = 5268 s

Time = 74

smoothSolver:  Solving for Ux, Initial residual = 0.00075577586, Final residual = 2.0551939e-05, No Iterations 2
smoothSolver:  Solving for Uy, Initial residual = 0.0082298099, Final residual = 0.0004242586, No Iterations 2
smoothSolver:  Solving for Uz, Initial residual = 0.014763768, Final residual = 0.00044967462, No Iterations 2
GAMG:  Solving for p, Initial residual = 0.013742378, Final residual = 7.8948082e-05, No Iterations 4
GAMG:  Solving for p, Initial residual = 0.0010391186, Final residual = 3.7396466e-06, No Iterations 4
time step continuity errors : sum local = 3.5639902e-09, global = -4.9324513e-11, cumulative = -1.183776e-06
smoothSolver:  Solving for epsilon, Initial residual = 0.00049006042, Final residual = 3.5487919e-05, No Iterations 1
smoothSolver:  Solving for k, Initial residual = 0.0042819359, Final residual = 0.00024492654, No Iterations 1
ExecutionTime = 5327.55 s  ClockTime = 5340 s

Time = 75

smoothSolver:  Solving for Ux, Initial residual = 0.0007435424, Final residual = 2.023798e-05, No Iterations 2
smoothSolver:  Solving for Uy, Initial residual = 0.0080598679, Final residual = 0.0004167209, No Iterations 2
smoothSolver:  Solving for Uz, Initial residual = 0.014542941, Final residual = 0.00044482148, No Iterations 2
GAMG:  Solving for p, Initial residual = 0.013613049, Final residual = 7.7889406e-05, No Iterations 4
GAMG:  Solving for p, Initial residual = 0.0010286636, Final residual = 4.0818326e-06, No Iterations 4
time step continuity errors : sum local = 3.8603791e-09, global = 3.8164667e-10, cumulative = -1.1833943e-06
smoothSolver:  Solving for epsilon, Initial residual = 0.00048044225, Final residual = 3.4944196e-05, No Iterations 1
smoothSolver:  Solving for k, Initial residual = 0.0042492921, Final residual = 0.00024445174, No Iterations 1
ExecutionTime = 5398.74 s  ClockTime = 5411 s

Time = 76

smoothSolver:  Solving for Ux, Initial residual = 0.00073147049, Final residual = 1.993537e-05, No Iterations 2
smoothSolver:  Solving for Uy, Initial residual = 0.0078936716, Final residual = 0.00040946776, No Iterations 2
smoothSolver:  Solving for Uz, Initial residual = 0.014318737, Final residual = 0.00043987415, No Iterations 2
GAMG:  Solving for p, Initial residual = 0.013487981, Final residual = 7.7119936e-05, No Iterations 4
GAMG:  Solving for p, Initial residual = 0.0010187191, Final residual = 4.4405256e-06, No Iterations 4
time step continuity errors : sum local = 4.1673064e-09, global = 6.087052e-10, cumulative = -1.1827856e-06
smoothSolver:  Solving for epsilon, Initial residual = 0.00047117594, Final residual = 3.4417276e-05, No Iterations 1
smoothSolver:  Solving for k, Initial residual = 0.0042176864, Final residual = 0.00024399383, No Iterations 1
ExecutionTime = 5470.09 s  ClockTime = 5482 s

Time = 77

smoothSolver:  Solving for Ux, Initial residual = 0.00071955502, Final residual = 1.9644067e-05, No Iterations 2
smoothSolver:  Solving for Uy, Initial residual = 0.0077311309, Final residual = 0.00040249209, No Iterations 2
smoothSolver:  Solving for Uz, Initial residual = 0.014092364, Final residual = 0.00043477739, No Iterations 2
GAMG:  Solving for p, Initial residual = 0.013368596, Final residual = 7.6377014e-05, No Iterations 4
GAMG:  Solving for p, Initial residual = 0.0010089789, Final residual = 4.7298339e-06, No Iterations 4
time step continuity errors : sum local = 4.4048823e-09, global = 7.9165571e-10, cumulative = -1.181994e-06
smoothSolver:  Solving for epsilon, Initial residual = 0.00046227187, Final residual = 3.3905339e-05, No Iterations 1
smoothSolver:  Solving for k, Initial residual = 0.0041870472, Final residual = 0.00024355294, No Iterations 1
ExecutionTime = 5541.3 s  ClockTime = 5554 s

Time = 78

smoothSolver:  Solving for Ux, Initial residual = 0.00070777166, Final residual = 1.9363781e-05, No Iterations 2
smoothSolver:  Solving for Uy, Initial residual = 0.0075716839, Final residual = 0.00039577107, No Iterations 2
smoothSolver:  Solving for Uz, Initial residual = 0.013862551, Final residual = 0.00042957277, No Iterations 2
GAMG:  Solving for p, Initial residual = 0.013242456, Final residual = 7.5549013e-05, No Iterations 4
GAMG:  Solving for p, Initial residual = 0.00099879526, Final residual = 4.84379e-06, No Iterations 4
time step continuity errors : sum local = 4.4773154e-09, global = 8.6815845e-10, cumulative = -1.1811258e-06
smoothSolver:  Solving for epsilon, Initial residual = 0.0004537022, Final residual = 3.3408565e-05, No Iterations 1
smoothSolver:  Solving for k, Initial residual = 0.0041573256, Final residual = 0.00024312986, No Iterations 1
ExecutionTime = 5612.76 s  ClockTime = 5625 s

Time = 79

smoothSolver:  Solving for Ux, Initial residual = 0.00069612022, Final residual = 1.9094393e-05, No Iterations 2
smoothSolver:  Solving for Uy, Initial residual = 0.0074145905, Final residual = 0.00038930098, No Iterations 2
smoothSolver:  Solving for Uz, Initial residual = 0.013628981, Final residual = 0.0004242792, No Iterations 2
GAMG:  Solving for p, Initial residual = 0.013118115, Final residual = 7.4745004e-05, No Iterations 4
GAMG:  Solving for p, Initial residual = 0.00098817289, Final residual = 4.6758301e-06, No Iterations 4
time step continuity errors : sum local = 4.2907964e-09, global = 7.8734957e-10, cumulative = -1.1803384e-06
smoothSolver:  Solving for epsilon, Initial residual = 0.00044545317, Final residual = 3.2925145e-05, No Iterations 1
smoothSolver:  Solving for k, Initial residual = 0.0041284723, Final residual = 0.00024272113, No Iterations 1
ExecutionTime = 5684.27 s  ClockTime = 5697 s

Time = 80

smoothSolver:  Solving for Ux, Initial residual = 0.0006845939, Final residual = 1.8834962e-05, No Iterations 2
smoothSolver:  Solving for Uy, Initial residual = 0.0072592619, Final residual = 0.00038304301, No Iterations 2
smoothSolver:  Solving for Uz, Initial residual = 0.013390725, Final residual = 0.00041888823, No Iterations 2
GAMG:  Solving for p, Initial residual = 0.012994453, Final residual = 7.4061833e-05, No Iterations 4
GAMG:  Solving for p, Initial residual = 0.00097709181, Final residual = 4.3651673e-06, No Iterations 4
time step continuity errors : sum local = 3.9775949e-09, global = 6.0397723e-10, cumulative = -1.1797345e-06
smoothSolver:  Solving for epsilon, Initial residual = 0.00043750538, Final residual = 3.245347e-05, No Iterations 1
smoothSolver:  Solving for k, Initial residual = 0.0041004375, Final residual = 0.00024232739, No Iterations 1
ExecutionTime = 5755.99 s  ClockTime = 5768 s

Time = 81

smoothSolver:  Solving for Ux, Initial residual = 0.00067320668, Final residual = 1.8584819e-05, No Iterations 2
smoothSolver:  Solving for Uy, Initial residual = 0.0071050457, Final residual = 0.00037692276, No Iterations 2
smoothSolver:  Solving for Uz, Initial residual = 0.013147164, Final residual = 0.00041344743, No Iterations 2
GAMG:  Solving for p, Initial residual = 0.012870378, Final residual = 7.3473319e-05, No Iterations 4
GAMG:  Solving for p, Initial residual = 0.00096612253, Final residual = 4.1473425e-06, No Iterations 4
time step continuity errors : sum local = 3.7537343e-09, global = 3.215258e-10, cumulative = -1.1794129e-06
smoothSolver:  Solving for epsilon, Initial residual = 0.00042985975, Final residual = 3.1998635e-05, No Iterations 1
smoothSolver:  Solving for k, Initial residual = 0.0040731565, Final residual = 0.00024195005, No Iterations 1
ExecutionTime = 5827.2 s  ClockTime = 5840 s

Time = 82

smoothSolver:  Solving for Ux, Initial residual = 0.00066194267, Final residual = 1.8342262e-05, No Iterations 2
smoothSolver:  Solving for Uy, Initial residual = 0.0069508801, Final residual = 0.00037090188, No Iterations 2
smoothSolver:  Solving for Uz, Initial residual = 0.012898384, Final residual = 0.00040794542, No Iterations 2
GAMG:  Solving for p, Initial residual = 0.012743351, Final residual = 7.2901463e-05, No Iterations 4
GAMG:  Solving for p, Initial residual = 0.00095506155, Final residual = 4.162977e-06, No Iterations 4
time step continuity errors : sum local = 3.743946e-09, global = -1.2138434e-11, cumulative = -1.1794251e-06
smoothSolver:  Solving for epsilon, Initial residual = 0.000422493, Final residual = 3.1561789e-05, No Iterations 1
smoothSolver:  Solving for k, Initial residual = 0.0040466389, Final residual = 0.00024159163, No Iterations 1
ExecutionTime = 5898.38 s  ClockTime = 5911 s

Time = 83

smoothSolver:  Solving for Ux, Initial residual = 0.00065078353, Final residual = 1.8106422e-05, No Iterations 2
smoothSolver:  Solving for Uy, Initial residual = 0.0067955273, Final residual = 0.0003649602, No Iterations 2
smoothSolver:  Solving for Uz, Initial residual = 0.012644246, Final residual = 0.00040246071, No Iterations 2
GAMG:  Solving for p, Initial residual = 0.012613067, Final residual = 7.2389098e-05, No Iterations 4
GAMG:  Solving for p, Initial residual = 0.00094448146, Final residual = 4.2605691e-06, No Iterations 4
time step continuity errors : sum local = 3.8091319e-09, global = -1.7959835e-10, cumulative = -1.1796047e-06
smoothSolver:  Solving for epsilon, Initial residual = 0.00041542248, Final residual = 3.1142539e-05, No Iterations 1
smoothSolver:  Solving for k, Initial residual = 0.0040208629, Final residual = 0.0002412483, No Iterations 1
ExecutionTime = 5969.38 s  ClockTime = 5982 s

Time = 84

smoothSolver:  Solving for Ux, Initial residual = 0.00063970376, Final residual = 1.7876249e-05, No Iterations 2
smoothSolver:  Solving for Uy, Initial residual = 0.006638485, Final residual = 0.00035910089, No Iterations 2
smoothSolver:  Solving for Uz, Initial residual = 0.01238618, Final residual = 0.00039703982, No Iterations 2
GAMG:  Solving for p, Initial residual = 0.012485445, Final residual = 7.1724008e-05, No Iterations 4
GAMG:  Solving for p, Initial residual = 0.00093350197, Final residual = 4.3487885e-06, No Iterations 4
time step continuity errors : sum local = 3.8668309e-09, global = -9.6509514e-11, cumulative = -1.1797012e-06
smoothSolver:  Solving for epsilon, Initial residual = 0.00040861186, Final residual = 3.0737873e-05, No Iterations 1
[...]
ExecutionTime = 34342.25 s  ClockTime = 34373 s

Time = 480

smoothSolver:  Solving for Ux, Initial residual = 1.5391396e-05, Final residual = 1.0289256e-06, No Iterations 2
smoothSolver:  Solving for Uy, Initial residual = 0.00010355655, Final residual = 8.4454541e-06, No Iterations 2
smoothSolver:  Solving for Uz, Initial residual = 0.0002956447, Final residual = 2.0878888e-05, No Iterations 2
GAMG:  Solving for p, Initial residual = 0.00049086175, Final residual = 4.815549e-06, No Iterations 4
GAMG:  Solving for p, Initial residual = 3.7822546e-05, Final residual = 1.9417293e-07, No Iterations 5
time step continuity errors : sum local = 1.4162729e-10, global = -2.4791592e-11, cumulative = -1.1854268e-06
smoothSolver:  Solving for epsilon, Initial residual = 1.627455e-05, Final residual = 1.5547703e-06, No Iterations 1
smoothSolver:  Solving for k, Initial residual = 0.0018383011, Final residual = 0.00017234406, No Iterations 1
ExecutionTime = 34416.03 s  ClockTime = 34447 s

Time = 481

smoothSolver:  Solving for Ux, Initial residual = 1.5278763e-05, Final residual = 1.0220232e-06, No Iterations 2
smoothSolver:  Solving for Uy, Initial residual = 0.00010289788, Final residual = 8.3919983e-06, No Iterations 2
smoothSolver:  Solving for Uz, Initial residual = 0.00029410522, Final residual = 2.0772917e-05, No Iterations 2
GAMG:  Solving for p, Initial residual = 0.00048855366, Final residual = 4.7992486e-06, No Iterations 4
GAMG:  Solving for p, Initial residual = 3.7704685e-05, Final residual = 1.9476906e-07, No Iterations 5
time step continuity errors : sum local = 1.4203754e-10, global = -2.4652293e-11, cumulative = -1.1854514e-06
smoothSolver:  Solving for epsilon, Initial residual = 1.6162911e-05, Final residual = 1.5441397e-06, No Iterations 1
smoothSolver:  Solving for k, Initial residual = 0.0018288415, Final residual = 0.00017150973, No Iterations 1
ExecutionTime = 34489.72 s  ClockTime = 34521 s

Time = 482

smoothSolver:  Solving for Ux, Initial residual = 1.5167074e-05, Final residual = 1.0151731e-06, No Iterations 2
smoothSolver:  Solving for Uy, Initial residual = 0.00010224636, Final residual = 8.3392044e-06, No Iterations 2
smoothSolver:  Solving for Uz, Initial residual = 0.00029254729, Final residual = 2.0665695e-05, No Iterations 2
GAMG:  Solving for p, Initial residual = 0.00048516046, Final residual = 4.759202e-06, No Iterations 4
GAMG:  Solving for p, Initial residual = 3.7580941e-05, Final residual = 1.9192052e-07, No Iterations 5
time step continuity errors : sum local = 1.399362e-10, global = -2.3078787e-11, cumulative = -1.1854745e-06
smoothSolver:  Solving for epsilon, Initial residual = 1.6052591e-05, Final residual = 1.5336316e-06, No Iterations 1
smoothSolver:  Solving for k, Initial residual = 0.0018193533, Final residual = 0.00017067183, No Iterations 1
ExecutionTime = 34563.53 s  ClockTime = 34595 s

Time = 483

smoothSolver:  Solving for Ux, Initial residual = 1.5056149e-05, Final residual = 1.0083636e-06, No Iterations 2
smoothSolver:  Solving for Uy, Initial residual = 0.00010160115, Final residual = 8.2869539e-06, No Iterations 2
smoothSolver:  Solving for Uz, Initial residual = 0.00029098101, Final residual = 2.0558291e-05, No Iterations 2
GAMG:  Solving for p, Initial residual = 0.00048237825, Final residual = 4.7455862e-06, No Iterations 4
GAMG:  Solving for p, Initial residual = 3.7546866e-05, Final residual = 1.8620797e-07, No Iterations 5
time step continuity errors : sum local = 1.3574841e-10, global = -2.1153298e-11, cumulative = -1.1854956e-06
smoothSolver:  Solving for epsilon, Initial residual = 1.5944627e-05, Final residual = 1.5233068e-06, No Iterations 1
smoothSolver:  Solving for k, Initial residual = 0.0018098342, Final residual = 0.00016983002, No Iterations 1
ExecutionTime = 34636.88 s  ClockTime = 34668 s

Time = 484

smoothSolver:  Solving for Ux, Initial residual = 1.4945741e-05, Final residual = 1.0015802e-06, No Iterations 2
smoothSolver:  Solving for Uy, Initial residual = 0.00010095616, Final residual = 8.2351949e-06, No Iterations 2
smoothSolver:  Solving for Uz, Initial residual = 0.0002894225, Final residual = 2.0451151e-05, No Iterations 2
GAMG:  Solving for p, Initial residual = 0.00047934851, Final residual = 4.7721365e-06, No Iterations 4
GAMG:  Solving for p, Initial residual = 3.7407159e-05, Final residual = 1.7659858e-07, No Iterations 5
time step continuity errors : sum local = 1.2872198e-10, global = -1.8633391e-11, cumulative = -1.1855143e-06
smoothSolver:  Solving for epsilon, Initial residual = 1.5836874e-05, Final residual = 1.5131785e-06, No Iterations 1
smoothSolver:  Solving for k, Initial residual = 0.0018002678, Final residual = 0.00016898322, No Iterations 1
ExecutionTime = 34710.39 s  ClockTime = 34742 s

Time = 485

smoothSolver:  Solving for Ux, Initial residual = 1.4836002e-05, Final residual = 9.9484639e-07, No Iterations 2
smoothSolver:  Solving for Uy, Initial residual = 0.00010031415, Final residual = 8.1837106e-06, No Iterations 2
smoothSolver:  Solving for Uz, Initial residual = 0.00028789568, Final residual = 2.0345479e-05, No Iterations 2
GAMG:  Solving for p, Initial residual = 0.00047672954, Final residual = 1.882671e-06, No Iterations 5
GAMG:  Solving for p, Initial residual = 3.5639079e-05, Final residual = 2.6001037e-07, No Iterations 4
time step continuity errors : sum local = 1.8948265e-10, global = 1.1665294e-11, cumulative = -1.1855026e-06
smoothSolver:  Solving for epsilon, Initial residual = 1.5729338e-05, Final residual = 1.5030516e-06, No Iterations 1
smoothSolver:  Solving for k, Initial residual = 0.0017906071, Final residual = 0.00016812709, No Iterations 1
ExecutionTime = 34783.6 s  ClockTime = 34815 s

Time = 486

smoothSolver:  Solving for Ux, Initial residual = 1.472701e-05, Final residual = 9.8815407e-07, No Iterations 2
smoothSolver:  Solving for Uy, Initial residual = 9.9677476e-05, Final residual = 8.1333898e-06, No Iterations 2
smoothSolver:  Solving for Uz, Initial residual = 0.00028636381, Final residual = 2.0240657e-05, No Iterations 2
GAMG:  Solving for p, Initial residual = 0.0004737603, Final residual = 1.8576008e-06, No Iterations 5
GAMG:  Solving for p, Initial residual = 3.5280675e-05, Final residual = 2.545883e-07, No Iterations 4
time step continuity errors : sum local = 1.8550295e-10, global = 1.9776413e-11, cumulative = -1.1854828e-06
smoothSolver:  Solving for epsilon, Initial residual = 1.5622017e-05, Final residual = 1.4929358e-06, No Iterations 1
smoothSolver:  Solving for k, Initial residual = 0.0017806994, Final residual = 0.00016724728, No Iterations 1
ExecutionTime = 34856.95 s  ClockTime = 34888 s

Time = 487

smoothSolver:  Solving for Ux, Initial residual = 1.46181e-05, Final residual = 9.814563e-07, No Iterations 2
smoothSolver:  Solving for Uy, Initial residual = 9.9042302e-05, Final residual = 8.0831141e-06, No Iterations 2
smoothSolver:  Solving for Uz, Initial residual = 0.00028484192, Final residual = 2.0137615e-05, No Iterations 2
GAMG:  Solving for p, Initial residual = 0.00047011495, Final residual = 4.697165e-06, No Iterations 4
GAMG:  Solving for p, Initial residual = 3.643982e-05, Final residual = 1.5596163e-07, No Iterations 5
time step continuity errors : sum local = 1.1362727e-10, global = -1.3238933e-11, cumulative = -1.1854961e-06
smoothSolver:  Solving for epsilon, Initial residual = 1.5515749e-05, Final residual = 1.4827909e-06, No Iterations 1
smoothSolver:  Solving for k, Initial residual = 0.001770589, Final residual = 0.00016634746, No Iterations 1
ExecutionTime = 34930.2 s  ClockTime = 34962 s

Time = 488

smoothSolver:  Solving for Ux, Initial residual = 1.4510059e-05, Final residual = 9.7480457e-07, No Iterations 2
smoothSolver:  Solving for Uy, Initial residual = 9.8414307e-05, Final residual = 8.0330293e-06, No Iterations 2
smoothSolver:  Solving for Uz, Initial residual = 0.00028331133, Final residual = 2.0033195e-05, No Iterations 2
GAMG:  Solving for p, Initial residual = 0.00046593751, Final residual = 4.6167615e-06, No Iterations 4
GAMG:  Solving for p, Initial residual = 3.6103661e-05, Final residual = 1.5948135e-07, No Iterations 5
time step continuity errors : sum local = 1.1617524e-10, global = -1.374735e-11, cumulative = -1.1855098e-06
smoothSolver:  Solving for epsilon, Initial residual = 1.5410654e-05, Final residual = 1.4726943e-06, No Iterations 1
smoothSolver:  Solving for k, Initial residual = 0.0017603995, Final residual = 0.00016543929, No Iterations 1
ExecutionTime = 35003.89 s  ClockTime = 35035 s

Time = 489

smoothSolver:  Solving for Ux, Initial residual = 1.4402753e-05, Final residual = 9.6820319e-07, No Iterations 2
smoothSolver:  Solving for Uy, Initial residual = 9.7796274e-05, Final residual = 7.9836518e-06, No Iterations 2
smoothSolver:  Solving for Uz, Initial residual = 0.00028175031, Final residual = 1.9927103e-05, No Iterations 2
GAMG:  Solving for p, Initial residual = 0.00046264402, Final residual = 4.5525288e-06, No Iterations 4
GAMG:  Solving for p, Initial residual = 3.5800757e-05, Final residual = 1.6465019e-07, No Iterations 5
time step continuity errors : sum local = 1.1992647e-10, global = -1.5798353e-11, cumulative = -1.1855256e-06
smoothSolver:  Solving for epsilon, Initial residual = 1.5305947e-05, Final residual = 1.4628118e-06, No Iterations 1
smoothSolver:  Solving for k, Initial residual = 0.0017501608, Final residual = 0.0001645257, No Iterations 1
ExecutionTime = 35077.82 s  ClockTime = 35109 s

Time = 490

smoothSolver:  Solving for Ux, Initial residual = 1.4296393e-05, Final residual = 9.6163585e-07, No Iterations 2
smoothSolver:  Solving for Uy, Initial residual = 9.7184552e-05, Final residual = 7.9352242e-06, No Iterations 2
smoothSolver:  Solving for Uz, Initial residual = 0.00028019804, Final residual = 1.9821218e-05, No Iterations 2
GAMG:  Solving for p, Initial residual = 0.00046015312, Final residual = 4.4929248e-06, No Iterations 4
GAMG:  Solving for p, Initial residual = 3.5552943e-05, Final residual = 1.6883378e-07, No Iterations 5
time step continuity errors : sum local = 1.2296417e-10, global = -1.7793596e-11, cumulative = -1.1855434e-06
smoothSolver:  Solving for epsilon, Initial residual = 1.5201496e-05, Final residual = 1.4530367e-06, No Iterations 1
smoothSolver:  Solving for k, Initial residual = 0.0017398852, Final residual = 0.00016360814, No Iterations 1
ExecutionTime = 35152.46 s  ClockTime = 35184 s

Time = 491

smoothSolver:  Solving for Ux, Initial residual = 1.4190911e-05, Final residual = 9.5512034e-07, No Iterations 2
smoothSolver:  Solving for Uy, Initial residual = 9.657845e-05, Final residual = 7.8878577e-06, No Iterations 2
smoothSolver:  Solving for Uz, Initial residual = 0.00027864306, Final residual = 1.971524e-05, No Iterations 2
GAMG:  Solving for p, Initial residual = 0.00045841504, Final residual = 4.468362e-06, No Iterations 4
GAMG:  Solving for p, Initial residual = 3.5390097e-05, Final residual = 1.7136854e-07, No Iterations 5
time step continuity errors : sum local = 1.2480596e-10, global = -1.8822884e-11, cumulative = -1.1855622e-06
smoothSolver:  Solving for epsilon, Initial residual = 1.5098446e-05, Final residual = 1.4432834e-06, No Iterations 1
smoothSolver:  Solving for k, Initial residual = 0.0017295828, Final residual = 0.00016268719, No Iterations 1
ExecutionTime = 35226.01 s  ClockTime = 35258 s

Time = 492

smoothSolver:  Solving for Ux, Initial residual = 1.4086327e-05, Final residual = 9.4866051e-07, No Iterations 2
smoothSolver:  Solving for Uy, Initial residual = 9.5980339e-05, Final residual = 7.8418855e-06, No Iterations 2
smoothSolver:  Solving for Uz, Initial residual = 0.00027707477, Final residual = 1.9609293e-05, No Iterations 2
GAMG:  Solving for p, Initial residual = 0.00045571778, Final residual = 4.4696755e-06, No Iterations 4
GAMG:  Solving for p, Initial residual = 3.524364e-05, Final residual = 1.7109208e-07, No Iterations 5
time step continuity errors : sum local = 1.2460417e-10, global = -1.8825117e-11, cumulative = -1.1855811e-06
smoothSolver:  Solving for epsilon, Initial residual = 1.4994866e-05, Final residual = 1.4335276e-06, No Iterations 1
smoothSolver:  Solving for k, Initial residual = 0.0017192723, Final residual = 0.00016176461, No Iterations 1
ExecutionTime = 35299.66 s  ClockTime = 35332 s

Time = 493

smoothSolver:  Solving for Ux, Initial residual = 1.3982626e-05, Final residual = 9.4225394e-07, No Iterations 2
smoothSolver:  Solving for Uy, Initial residual = 9.5398814e-05, Final residual = 7.7967838e-06, No Iterations 2
smoothSolver:  Solving for Uz, Initial residual = 0.0002755235, Final residual = 1.950506e-05, No Iterations 2
GAMG:  Solving for p, Initial residual = 0.00045303587, Final residual = 4.462125e-06, No Iterations 4
GAMG:  Solving for p, Initial residual = 3.509099e-05, Final residual = 1.6742163e-07, No Iterations 5
time step continuity errors : sum local = 1.2193418e-10, global = -1.8045894e-11, cumulative = -1.1855991e-06
smoothSolver:  Solving for epsilon, Initial residual = 1.4892077e-05, Final residual = 1.4238696e-06, No Iterations 1
smoothSolver:  Solving for k, Initial residual = 0.0017089677, Final residual = 0.00016084193, No Iterations 1
ExecutionTime = 35373.08 s  ClockTime = 35405 s

Time = 494

smoothSolver:  Solving for Ux, Initial residual = 1.3879932e-05, Final residual = 9.3588672e-07, No Iterations 2
smoothSolver:  Solving for Uy, Initial residual = 9.4826405e-05, Final residual = 7.7517397e-06, No Iterations 2
smoothSolver:  Solving for Uz, Initial residual = 0.00027397955, Final residual = 1.9400647e-05, No Iterations 2
GAMG:  Solving for p, Initial residual = 0.00044980101, Final residual = 4.4224175e-06, No Iterations 4
GAMG:  Solving for p, Initial residual = 3.4926264e-05, Final residual = 1.6099365e-07, No Iterations 5
time step continuity errors : sum local = 1.1725811e-10, global = -1.6805108e-11, cumulative = -1.1856159e-06
smoothSolver:  Solving for epsilon, Initial residual = 1.4790302e-05, Final residual = 1.414264e-06, No Iterations 1
smoothSolver:  Solving for k, Initial residual = 0.0016986754, Final residual = 0.00015991956, No Iterations 1
ExecutionTime = 35446.58 s  ClockTime = 35478 s

Time = 495

smoothSolver:  Solving for Ux, Initial residual = 1.3777935e-05, Final residual = 9.2955784e-07, No Iterations 2
smoothSolver:  Solving for Uy, Initial residual = 9.425735e-05, Final residual = 7.7067563e-06, No Iterations 2
smoothSolver:  Solving for Uz, Initial residual = 0.00027244549, Final residual = 1.9297051e-05, No Iterations 2
GAMG:  Solving for p, Initial residual = 0.00044675478, Final residual = 4.3562948e-06, No Iterations 4
GAMG:  Solving for p, Initial residual = 3.4809413e-05, Final residual = 1.529431e-07, No Iterations 5
time step continuity errors : sum local = 1.1140158e-10, global = -1.5116219e-11, cumulative = -1.185631e-06
smoothSolver:  Solving for epsilon, Initial residual = 1.468962e-05, Final residual = 1.4047633e-06, No Iterations 1
smoothSolver:  Solving for k, Initial residual = 0.001688402, Final residual = 0.00015899817, No Iterations 1
ExecutionTime = 35519.99 s  ClockTime = 35552 s

Time = 496

smoothSolver:  Solving for Ux, Initial residual = 1.3676756e-05, Final residual = 9.232898e-07, No Iterations 2
smoothSolver:  Solving for Uy, Initial residual = 9.3692597e-05, Final residual = 7.6620459e-06, No Iterations 2
smoothSolver:  Solving for Uz, Initial residual = 0.00027095089, Final residual = 1.9195057e-05, No Iterations 2
GAMG:  Solving for p, Initial residual = 0.00044375143, Final residual = 4.2447225e-06, No Iterations 4
GAMG:  Solving for p, Initial residual = 3.4566608e-05, Final residual = 1.461308e-07, No Iterations 5
time step continuity errors : sum local = 1.0644765e-10, global = -1.3964838e-11, cumulative = -1.185645e-06
smoothSolver:  Solving for epsilon, Initial residual = 1.4589217e-05, Final residual = 1.3952471e-06, No Iterations 1
smoothSolver:  Solving for k, Initial residual = 0.0016781493, Final residual = 0.00015807781, No Iterations 1
ExecutionTime = 35593.67 s  ClockTime = 35626 s

Time = 497

smoothSolver:  Solving for Ux, Initial residual = 1.3576669e-05, Final residual = 9.170616e-07, No Iterations 2
smoothSolver:  Solving for Uy, Initial residual = 9.3126575e-05, Final residual = 7.617648e-06, No Iterations 2
smoothSolver:  Solving for Uz, Initial residual = 0.00026944008, Final residual = 1.9094719e-05, No Iterations 2
GAMG:  Solving for p, Initial residual = 0.00044109895, Final residual = 4.1469878e-06, No Iterations 4
GAMG:  Solving for p, Initial residual = 3.4326257e-05, Final residual = 1.4241985e-07, No Iterations 5
time step continuity errors : sum local = 1.0375329e-10, global = -1.3243413e-11, cumulative = -1.1856582e-06
smoothSolver:  Solving for epsilon, Initial residual = 1.4490812e-05, Final residual = 1.3857897e-06, No Iterations 1
smoothSolver:  Solving for k, Initial residual = 0.0016679246, Final residual = 0.00015715898, No Iterations 1
ExecutionTime = 35667.48 s  ClockTime = 35700 s

Time = 498

smoothSolver:  Solving for Ux, Initial residual = 1.347749e-05, Final residual = 9.1088721e-07, No Iterations 2
smoothSolver:  Solving for Uy, Initial residual = 9.2567764e-05, Final residual = 7.5744067e-06, No Iterations 2
smoothSolver:  Solving for Uz, Initial residual = 0.00026793858, Final residual = 1.899537e-05, No Iterations 2
GAMG:  Solving for p, Initial residual = 0.00043877215, Final residual = 4.0912999e-06, No Iterations 4
GAMG:  Solving for p, Initial residual = 3.412241e-05, Final residual = 1.4201745e-07, No Iterations 5
time step continuity errors : sum local = 1.0347055e-10, global = -1.2912663e-11, cumulative = -1.1856712e-06
smoothSolver:  Solving for epsilon, Initial residual = 1.4392631e-05, Final residual = 1.3765254e-06, No Iterations 1
smoothSolver:  Solving for k, Initial residual = 0.0016577298, Final residual = 0.00015624225, No Iterations 1
ExecutionTime = 35741.42 s  ClockTime = 35773 s

Time = 499

smoothSolver:  Solving for Ux, Initial residual = 1.337904e-05, Final residual = 9.0476157e-07, No Iterations 2
smoothSolver:  Solving for Uy, Initial residual = 9.2017199e-05, Final residual = 7.5314457e-06, No Iterations 2
smoothSolver:  Solving for Uz, Initial residual = 0.00026643812, Final residual = 1.8896947e-05, No Iterations 2
GAMG:  Solving for p, Initial residual = 0.00043710484, Final residual = 4.0842513e-06, No Iterations 4
GAMG:  Solving for p, Initial residual = 3.3940779e-05, Final residual = 1.4542765e-07, No Iterations 5
time step continuity errors : sum local = 1.0596742e-10, global = -1.3172603e-11, cumulative = -1.1856843e-06
smoothSolver:  Solving for epsilon, Initial residual = 1.4295293e-05, Final residual = 1.3673186e-06, No Iterations 1
smoothSolver:  Solving for k, Initial residual = 0.0016475645, Final residual = 0.00015532763, No Iterations 1
ExecutionTime = 35814.93 s  ClockTime = 35847 s

Time = 500

smoothSolver:  Solving for Ux, Initial residual = 1.3281324e-05, Final residual = 8.9868049e-07, No Iterations 2
smoothSolver:  Solving for Uy, Initial residual = 9.1470107e-05, Final residual = 7.4887993e-06, No Iterations 2
smoothSolver:  Solving for Uz, Initial residual = 0.00026497726, Final residual = 1.8799694e-05, No Iterations 2
GAMG:  Solving for p, Initial residual = 0.00043479184, Final residual = 4.1111364e-06, No Iterations 4
GAMG:  Solving for p, Initial residual = 3.3718236e-05, Final residual = 1.5249104e-07, No Iterations 5
time step continuity errors : sum local = 1.11128e-10, global = -1.3860203e-11, cumulative = -1.1856982e-06
smoothSolver:  Solving for epsilon, Initial residual = 1.4197033e-05, Final residual = 1.3582078e-06, No Iterations 1
smoothSolver:  Solving for k, Initial residual = 0.0016374299, Final residual = 0.00015441527, No Iterations 1
ExecutionTime = 35915.21 s  ClockTime = 35947 s

End

